* NGSPICE file created from sky130_op_amp.ext - technology: sky130A

.subckt sky130_fd_pr__res_xhigh_po_1p41_THFN8M a_n141_n1516# a_n271_n1646# a_n141_1084#
X0 a_n141_1084# a_n141_n1516# a_n271_n1646# sky130_fd_pr__res_xhigh_po_1p41 l=11
.ends

.subckt sky130_op_amp VDD IBIAS VN VP VOUT EN VSS
Xsky130_fd_pr__res_xhigh_po_1p41_THFN8M_0 m1_9916_7857# VSS a_n735_8972# sky130_fd_pr__res_xhigh_po_1p41_THFN8M
X0 a_8862_4192# EN VSS VSS sky130_fd_pr__nfet_01v8 ad=0.145 pd=1.29 as=0.145 ps=1.29 w=1 l=1
X1 VDD VDD VDD VDD sky130_fd_pr__pfet_01v8 ad=0.145 pd=1.29 as=0 ps=0 w=1 l=1
X2 VDD VDD VDD VDD sky130_fd_pr__pfet_01v8 ad=0.29 pd=2.58 as=0 ps=0 w=1 l=1
X3 a_3868_4185# IBIAS a_3329_8823# VSS sky130_fd_pr__nfet_01v8 ad=0.145 pd=1.29 as=0.145 ps=1.29 w=1 l=1
X4 a_n1962_4406# IBIAS VOUT VSS sky130_fd_pr__nfet_01v8 ad=0.145 pd=1.29 as=0.145 ps=1.29 w=1 l=1
X5 a_n1962_4406# IBIAS VOUT VSS sky130_fd_pr__nfet_01v8 ad=0.145 pd=1.29 as=0.145 ps=1.29 w=1 l=1
X6 VSS VSS VSS VSS sky130_fd_pr__nfet_01v8 ad=0.29 pd=2.58 as=0 ps=0 w=1 l=1
X7 a_3329_8823# IBIAS a_3868_4185# VSS sky130_fd_pr__nfet_01v8 ad=0.145 pd=1.29 as=0.145 ps=1.29 w=1 l=1
X8 VSS VSS VSS VSS sky130_fd_pr__nfet_01v8 ad=0.145 pd=1.29 as=0 ps=0 w=1 l=1
X9 VDD VDD VDD VDD sky130_fd_pr__pfet_01v8 ad=0.145 pd=1.29 as=0 ps=0 w=1 l=1
X10 a_3868_4185# IBIAS a_3329_8823# VSS sky130_fd_pr__nfet_01v8 ad=0.145 pd=1.29 as=0.145 ps=1.29 w=1 l=1
X11 a_n735_8972# VP a_3329_8823# VSS sky130_fd_pr__nfet_01v8 ad=0.145 pd=1.29 as=0.145 ps=1.29 w=1 l=1
X12 VSS EN a_n1962_4406# VSS sky130_fd_pr__nfet_01v8 ad=0.145 pd=1.29 as=0.145 ps=1.29 w=1 l=1
X13 a_3868_4185# IBIAS a_3329_8823# VSS sky130_fd_pr__nfet_01v8 ad=0.145 pd=1.29 as=0.145 ps=1.29 w=1 l=1
X14 a_3329_8823# VN a_n935_8875# VSS sky130_fd_pr__nfet_01v8 ad=0.145 pd=1.29 as=0.145 ps=1.29 w=1 l=1
X15 VDD a_n735_8972# VOUT VDD sky130_fd_pr__pfet_01v8 ad=0.145 pd=1.29 as=0.145 ps=1.29 w=1 l=1
X16 a_n1962_4406# EN VSS VSS sky130_fd_pr__nfet_01v8 ad=0.145 pd=1.29 as=0.145 ps=1.29 w=1 l=1
X17 a_3329_8823# VN a_n935_8875# VSS sky130_fd_pr__nfet_01v8 ad=0.145 pd=1.29 as=0.145 ps=1.29 w=1 l=1
X18 VDD a_n735_8972# VOUT VDD sky130_fd_pr__pfet_01v8 ad=0.145 pd=1.29 as=0.145 ps=1.29 w=1 l=1
X19 VSS VSS a_3329_8823# VSS sky130_fd_pr__nfet_01v8 ad=0.29 pd=2.58 as=0.145 ps=1.29 w=1 l=1
X20 a_n1962_4406# IBIAS VOUT VSS sky130_fd_pr__nfet_01v8 ad=0.145 pd=1.29 as=0.145 ps=1.29 w=1 l=1
X21 a_n1962_4406# IBIAS VOUT VSS sky130_fd_pr__nfet_01v8 ad=0.145 pd=1.29 as=0.145 ps=1.29 w=1 l=1
X22 VSS EN a_n1962_4406# VSS sky130_fd_pr__nfet_01v8 ad=0.145 pd=1.29 as=0.145 ps=1.29 w=1 l=1
X23 a_3329_8823# VN a_n935_8875# VSS sky130_fd_pr__nfet_01v8 ad=0.145 pd=1.29 as=0.145 ps=1.29 w=1 l=1
X24 VDD VDD VDD VDD sky130_fd_pr__pfet_01v8 ad=0.145 pd=1.29 as=0 ps=0 w=1 l=1
X25 a_n1962_4406# VSS VSS VSS sky130_fd_pr__nfet_01v8 ad=0.145 pd=1.29 as=0.145 ps=1.29 w=1 l=1
X26 a_n1962_4406# EN VSS VSS sky130_fd_pr__nfet_01v8 ad=0.145 pd=1.29 as=0.145 ps=1.29 w=1 l=1
X27 VOUT IBIAS a_n1962_4406# VSS sky130_fd_pr__nfet_01v8 ad=0.145 pd=1.29 as=0.145 ps=1.29 w=1 l=1
X28 VSS VSS a_n1962_4406# VSS sky130_fd_pr__nfet_01v8 ad=0.29 pd=2.58 as=0.145 ps=1.29 w=1 l=1
X29 VDD VDD VDD VDD sky130_fd_pr__pfet_01v8 ad=0.145 pd=1.29 as=0 ps=0 w=1 l=1
X30 a_n935_8875# VN a_3329_8823# VSS sky130_fd_pr__nfet_01v8 ad=0.145 pd=1.29 as=0.145 ps=1.29 w=1 l=1
X31 VOUT IBIAS a_n1962_4406# VSS sky130_fd_pr__nfet_01v8 ad=0.145 pd=1.29 as=0.145 ps=1.29 w=1 l=1
X32 VDD VDD VDD VDD sky130_fd_pr__pfet_01v8 ad=0.29 pd=2.58 as=0 ps=0 w=1 l=1
X33 a_3329_8823# VP a_n735_8972# VSS sky130_fd_pr__nfet_01v8 ad=0.145 pd=1.29 as=0.145 ps=1.29 w=1 l=1
X34 VSS EN a_n1962_4406# VSS sky130_fd_pr__nfet_01v8 ad=0.145 pd=1.29 as=0.145 ps=1.29 w=1 l=1
X35 VDD a_n735_8972# VOUT VDD sky130_fd_pr__pfet_01v8 ad=0.145 pd=1.29 as=0.145 ps=1.29 w=1 l=1
X36 VDD a_n735_8972# VOUT VDD sky130_fd_pr__pfet_01v8 ad=0.145 pd=1.29 as=0.145 ps=1.29 w=1 l=1
X37 VSS VSS VSS VSS sky130_fd_pr__nfet_01v8 ad=0.145 pd=1.29 as=0 ps=0 w=1 l=1
X38 a_n1962_4406# IBIAS VOUT VSS sky130_fd_pr__nfet_01v8 ad=0.145 pd=1.29 as=0.145 ps=1.29 w=1 l=1
X39 VOUT IBIAS a_n1962_4406# VSS sky130_fd_pr__nfet_01v8 ad=0.145 pd=1.29 as=0.145 ps=1.29 w=1 l=1
X40 VSS VSS a_3868_4185# VSS sky130_fd_pr__nfet_01v8 ad=0.29 pd=2.58 as=0.145 ps=1.29 w=1 l=1
X41 VSS VSS a_3868_4185# VSS sky130_fd_pr__nfet_01v8 ad=0.29 pd=2.58 as=0.145 ps=1.29 w=1 l=1
X42 a_n1962_4406# VSS VSS VSS sky130_fd_pr__nfet_01v8 ad=0.145 pd=1.29 as=0.29 ps=2.58 w=1 l=1
X43 a_3329_8823# VN a_n935_8875# VSS sky130_fd_pr__nfet_01v8 ad=0.145 pd=1.29 as=0.145 ps=1.29 w=1 l=1
X44 a_n1962_4406# EN VSS VSS sky130_fd_pr__nfet_01v8 ad=0.145 pd=1.29 as=0.145 ps=1.29 w=1 l=1
X45 a_n1962_4406# EN VSS VSS sky130_fd_pr__nfet_01v8 ad=0.145 pd=1.29 as=0.145 ps=1.29 w=1 l=1
X46 VSS VSS VSS VSS sky130_fd_pr__nfet_01v8 ad=0.145 pd=1.29 as=0 ps=0 w=1 l=1
X47 a_n735_8972# VP a_3329_8823# VSS sky130_fd_pr__nfet_01v8 ad=0.145 pd=1.29 as=0.145 ps=1.29 w=1 l=1
X48 a_n1962_4406# IBIAS VOUT VSS sky130_fd_pr__nfet_01v8 ad=0.145 pd=1.29 as=0.145 ps=1.29 w=1 l=1
X49 a_n1962_4406# EN VSS VSS sky130_fd_pr__nfet_01v8 ad=0.145 pd=1.29 as=0.145 ps=1.29 w=1 l=1
X50 a_3329_8823# IBIAS a_3868_4185# VSS sky130_fd_pr__nfet_01v8 ad=0.145 pd=1.29 as=0.145 ps=1.29 w=1 l=1
X51 IBIAS IBIAS a_8862_4192# VSS sky130_fd_pr__nfet_01v8 ad=0.145 pd=1.29 as=0.145 ps=1.29 w=1 l=1
X52 VSS EN a_8862_4192# VSS sky130_fd_pr__nfet_01v8 ad=0.145 pd=1.29 as=0.145 ps=1.29 w=1 l=1
X53 a_n935_8875# a_n935_8875# VDD VDD sky130_fd_pr__pfet_01v8 ad=0.145 pd=1.29 as=0.145 ps=1.29 w=1 l=1
X54 a_n1962_4406# IBIAS VOUT VSS sky130_fd_pr__nfet_01v8 ad=0.145 pd=1.29 as=0.145 ps=1.29 w=1 l=1
X55 VSS VSS VSS VSS sky130_fd_pr__nfet_01v8 ad=0.29 pd=2.58 as=0 ps=0 w=1 l=1
X56 VOUT IBIAS a_n1962_4406# VSS sky130_fd_pr__nfet_01v8 ad=0.145 pd=1.29 as=0.145 ps=1.29 w=1 l=1
X57 VOUT IBIAS a_n1962_4406# VSS sky130_fd_pr__nfet_01v8 ad=0.145 pd=1.29 as=0.145 ps=1.29 w=1 l=1
X58 a_3868_4185# VSS VSS VSS sky130_fd_pr__nfet_01v8 ad=0.145 pd=1.29 as=0.29 ps=2.58 w=1 l=1
X59 a_8862_4192# EN VSS VSS sky130_fd_pr__nfet_01v8 ad=0.145 pd=1.29 as=0.145 ps=1.29 w=1 l=1
X60 VSS VSS VSS VSS sky130_fd_pr__nfet_01v8 ad=0.29 pd=2.58 as=0 ps=0 w=1 l=1
X61 VDD a_n735_8972# VOUT VDD sky130_fd_pr__pfet_01v8 ad=0.145 pd=1.29 as=0.145 ps=1.29 w=1 l=1
X62 a_3868_4185# IBIAS a_3329_8823# VSS sky130_fd_pr__nfet_01v8 ad=0.145 pd=1.29 as=0.145 ps=1.29 w=1 l=1
X63 a_8862_4192# IBIAS IBIAS VSS sky130_fd_pr__nfet_01v8 ad=0.145 pd=1.29 as=0.145 ps=1.29 w=1 l=1
X64 VSS EN a_n1962_4406# VSS sky130_fd_pr__nfet_01v8 ad=0.145 pd=1.29 as=0.145 ps=1.29 w=1 l=1
X65 a_n1962_4406# EN VSS VSS sky130_fd_pr__nfet_01v8 ad=0.145 pd=1.29 as=0.145 ps=1.29 w=1 l=1
X66 VSS VSS VSS VSS sky130_fd_pr__nfet_01v8 ad=0.145 pd=1.29 as=0 ps=0 w=1 l=1
X67 a_n735_8972# a_n935_8875# VDD VDD sky130_fd_pr__pfet_01v8 ad=0.145 pd=1.29 as=0.145 ps=1.29 w=1 l=1
X68 VSS VSS a_3329_8823# VSS sky130_fd_pr__nfet_01v8 ad=0.29 pd=2.58 as=0.145 ps=1.29 w=1 l=1
X69 a_3329_8823# IBIAS a_3868_4185# VSS sky130_fd_pr__nfet_01v8 ad=0.145 pd=1.29 as=0.145 ps=1.29 w=1 l=1
X70 VSS VSS VSS VSS sky130_fd_pr__nfet_01v8 ad=0.145 pd=1.29 as=0 ps=0 w=1 l=1
X71 VSS EN a_3868_4185# VSS sky130_fd_pr__nfet_01v8 ad=0.145 pd=1.29 as=0.145 ps=1.29 w=1 l=1
X72 a_n935_8875# VN a_3329_8823# VSS sky130_fd_pr__nfet_01v8 ad=0.145 pd=1.29 as=0.145 ps=1.29 w=1 l=1
X73 VSS EN a_n1962_4406# VSS sky130_fd_pr__nfet_01v8 ad=0.145 pd=1.29 as=0.145 ps=1.29 w=1 l=1
X74 VSS VSS a_n1962_4406# VSS sky130_fd_pr__nfet_01v8 ad=0.145 pd=1.29 as=0.145 ps=1.29 w=1 l=1
X75 a_3329_8823# VN a_n935_8875# VSS sky130_fd_pr__nfet_01v8 ad=0.145 pd=1.29 as=0.145 ps=1.29 w=1 l=1
X76 VDD VDD VDD VDD sky130_fd_pr__pfet_01v8 ad=0.145 pd=1.29 as=0 ps=0 w=1 l=1
X77 a_3868_4185# EN VSS VSS sky130_fd_pr__nfet_01v8 ad=0.145 pd=1.29 as=0.145 ps=1.29 w=1 l=1
X78 a_3868_4185# EN VSS VSS sky130_fd_pr__nfet_01v8 ad=0.145 pd=1.29 as=0.145 ps=1.29 w=1 l=1
X79 VDD a_n735_8972# VOUT VDD sky130_fd_pr__pfet_01v8 ad=0.145 pd=1.29 as=0.145 ps=1.29 w=1 l=1
X80 VSS EN a_8862_4192# VSS sky130_fd_pr__nfet_01v8 ad=0.145 pd=1.29 as=0.145 ps=1.29 w=1 l=1
X81 a_3329_8823# IBIAS a_3868_4185# VSS sky130_fd_pr__nfet_01v8 ad=0.145 pd=1.29 as=0.145 ps=1.29 w=1 l=1
X82 a_3329_8823# VP a_n735_8972# VSS sky130_fd_pr__nfet_01v8 ad=0.145 pd=1.29 as=0.145 ps=1.29 w=1 l=1
X83 VDD a_n735_8972# VOUT VDD sky130_fd_pr__pfet_01v8 ad=0.145 pd=1.29 as=0.145 ps=1.29 w=1 l=1
X84 a_3868_4185# IBIAS a_3329_8823# VSS sky130_fd_pr__nfet_01v8 ad=0.145 pd=1.29 as=0.145 ps=1.29 w=1 l=1
X85 a_n1962_4406# EN VSS VSS sky130_fd_pr__nfet_01v8 ad=0.145 pd=1.29 as=0.145 ps=1.29 w=1 l=1
X86 a_8862_4192# EN VSS VSS sky130_fd_pr__nfet_01v8 ad=0.145 pd=1.29 as=0.145 ps=1.29 w=1 l=1
X87 VSS VSS VSS VSS sky130_fd_pr__nfet_01v8 ad=0.29 pd=2.58 as=0 ps=0 w=1 l=1
X88 a_3329_8823# IBIAS a_3868_4185# VSS sky130_fd_pr__nfet_01v8 ad=0.145 pd=1.29 as=0.145 ps=1.29 w=1 l=1
X89 a_3868_4185# VSS VSS VSS sky130_fd_pr__nfet_01v8 ad=0.145 pd=1.29 as=0.29 ps=2.58 w=1 l=1
X90 VOUT IBIAS a_n1962_4406# VSS sky130_fd_pr__nfet_01v8 ad=0.145 pd=1.29 as=0.145 ps=1.29 w=1 l=1
X91 VOUT IBIAS a_n1962_4406# VSS sky130_fd_pr__nfet_01v8 ad=0.145 pd=1.29 as=0.145 ps=1.29 w=1 l=1
X92 a_n1962_4406# IBIAS VOUT VSS sky130_fd_pr__nfet_01v8 ad=0.145 pd=1.29 as=0.145 ps=1.29 w=1 l=1
X93 a_3868_4185# EN VSS VSS sky130_fd_pr__nfet_01v8 ad=0.145 pd=1.29 as=0.145 ps=1.29 w=1 l=1
X94 a_3329_8823# VP a_n735_8972# VSS sky130_fd_pr__nfet_01v8 ad=0.145 pd=1.29 as=0.145 ps=1.29 w=1 l=1
X95 VOUT a_n735_8972# VDD VDD sky130_fd_pr__pfet_01v8 ad=0.145 pd=1.29 as=0.145 ps=1.29 w=1 l=1
X96 VSS VSS VSS VSS sky130_fd_pr__nfet_01v8 ad=0.145 pd=1.29 as=0 ps=0 w=1 l=1
X97 a_3868_4185# EN VSS VSS sky130_fd_pr__nfet_01v8 ad=0.145 pd=1.29 as=0.145 ps=1.29 w=1 l=1
X98 VSS EN a_3868_4185# VSS sky130_fd_pr__nfet_01v8 ad=0.145 pd=1.29 as=0.145 ps=1.29 w=1 l=1
X99 VOUT IBIAS a_n1962_4406# VSS sky130_fd_pr__nfet_01v8 ad=0.145 pd=1.29 as=0.145 ps=1.29 w=1 l=1
X100 a_3868_4185# IBIAS a_3329_8823# VSS sky130_fd_pr__nfet_01v8 ad=0.145 pd=1.29 as=0.145 ps=1.29 w=1 l=1
X101 VSS VSS VSS VSS sky130_fd_pr__nfet_01v8 ad=0.145 pd=1.29 as=0 ps=0 w=1 l=1
X102 a_n1962_4406# IBIAS VOUT VSS sky130_fd_pr__nfet_01v8 ad=0.145 pd=1.29 as=0.145 ps=1.29 w=1 l=1
X103 VOUT IBIAS a_n1962_4406# VSS sky130_fd_pr__nfet_01v8 ad=0.145 pd=1.29 as=0.145 ps=1.29 w=1 l=1
X104 VSS VSS VSS VSS sky130_fd_pr__nfet_01v8 ad=0.145 pd=1.29 as=0 ps=0 w=1 l=1
X105 VOUT IBIAS a_n1962_4406# VSS sky130_fd_pr__nfet_01v8 ad=0.145 pd=1.29 as=0.145 ps=1.29 w=1 l=1
X106 VSS VSS a_n1962_4406# VSS sky130_fd_pr__nfet_01v8 ad=0.29 pd=2.58 as=0.145 ps=1.29 w=1 l=1
X107 VSS EN a_n1962_4406# VSS sky130_fd_pr__nfet_01v8 ad=0.145 pd=1.29 as=0.145 ps=1.29 w=1 l=1
X108 a_n935_8875# VN a_3329_8823# VSS sky130_fd_pr__nfet_01v8 ad=0.145 pd=1.29 as=0.145 ps=1.29 w=1 l=1
X109 VDD VDD VDD VDD sky130_fd_pr__pfet_01v8 ad=0.145 pd=1.29 as=0 ps=0 w=1 l=1
X110 VSS EN a_n1962_4406# VSS sky130_fd_pr__nfet_01v8 ad=0.145 pd=1.29 as=0.145 ps=1.29 w=1 l=1
X111 VSS EN a_n1962_4406# VSS sky130_fd_pr__nfet_01v8 ad=0.145 pd=1.29 as=0.145 ps=1.29 w=1 l=1
X112 VDD a_n935_8875# a_n735_8972# VDD sky130_fd_pr__pfet_01v8 ad=0.145 pd=1.29 as=0.145 ps=1.29 w=1 l=1
X113 a_n1962_4406# IBIAS VOUT VSS sky130_fd_pr__nfet_01v8 ad=0.145 pd=1.29 as=0.145 ps=1.29 w=1 l=1
X114 VSS VSS VSS VSS sky130_fd_pr__nfet_01v8 ad=0.145 pd=1.29 as=0 ps=0 w=1 l=1
X115 VDD a_n735_8972# VOUT VDD sky130_fd_pr__pfet_01v8 ad=0.145 pd=1.29 as=0.145 ps=1.29 w=1 l=1
X116 VSS VSS VSS VSS sky130_fd_pr__nfet_01v8 ad=0.29 pd=2.58 as=0 ps=0 w=1 l=1
X117 a_n1962_4406# EN VSS VSS sky130_fd_pr__nfet_01v8 ad=0.145 pd=1.29 as=0.145 ps=1.29 w=1 l=1
X118 a_3329_8823# IBIAS a_3868_4185# VSS sky130_fd_pr__nfet_01v8 ad=0.145 pd=1.29 as=0.145 ps=1.29 w=1 l=1
X119 a_n935_8875# a_n935_8875# VDD VDD sky130_fd_pr__pfet_01v8 ad=0.145 pd=1.29 as=0.145 ps=1.29 w=1 l=1
X120 a_n1962_4406# IBIAS VOUT VSS sky130_fd_pr__nfet_01v8 ad=0.145 pd=1.29 as=0.145 ps=1.29 w=1 l=1
X121 VOUT IBIAS a_n1962_4406# VSS sky130_fd_pr__nfet_01v8 ad=0.145 pd=1.29 as=0.145 ps=1.29 w=1 l=1
X122 a_n1962_4406# IBIAS VOUT VSS sky130_fd_pr__nfet_01v8 ad=0.145 pd=1.29 as=0.145 ps=1.29 w=1 l=1
X123 a_n1962_4406# EN VSS VSS sky130_fd_pr__nfet_01v8 ad=0.145 pd=1.29 as=0.145 ps=1.29 w=1 l=1
X124 a_3329_8823# IBIAS a_3868_4185# VSS sky130_fd_pr__nfet_01v8 ad=0.145 pd=1.29 as=0.145 ps=1.29 w=1 l=1
X125 a_n735_8972# VP a_3329_8823# VSS sky130_fd_pr__nfet_01v8 ad=0.145 pd=1.29 as=0.145 ps=1.29 w=1 l=1
X126 VSS VSS a_n735_8972# VSS sky130_fd_pr__nfet_01v8 ad=0.145 pd=1.29 as=0.145 ps=1.29 w=1 l=1
X127 VOUT a_n735_8972# VDD VDD sky130_fd_pr__pfet_01v8 ad=0.145 pd=1.29 as=0.145 ps=1.29 w=1 l=1
X128 a_n1962_4406# IBIAS VOUT VSS sky130_fd_pr__nfet_01v8 ad=0.145 pd=1.29 as=0.145 ps=1.29 w=1 l=1
X129 a_n1962_4406# EN VSS VSS sky130_fd_pr__nfet_01v8 ad=0.145 pd=1.29 as=0.145 ps=1.29 w=1 l=1
X130 VSS EN a_n1962_4406# VSS sky130_fd_pr__nfet_01v8 ad=0.145 pd=1.29 as=0.145 ps=1.29 w=1 l=1
X131 VSS EN a_n1962_4406# VSS sky130_fd_pr__nfet_01v8 ad=0.145 pd=1.29 as=0.145 ps=1.29 w=1 l=1
X132 VSS EN a_8862_4192# VSS sky130_fd_pr__nfet_01v8 ad=0.145 pd=1.29 as=0.145 ps=1.29 w=1 l=1
X133 a_3329_8823# VSS VSS VSS sky130_fd_pr__nfet_01v8 ad=0.145 pd=1.29 as=0.29 ps=2.58 w=1 l=1
X134 VOUT IBIAS a_n1962_4406# VSS sky130_fd_pr__nfet_01v8 ad=0.145 pd=1.29 as=0.145 ps=1.29 w=1 l=1
X135 VSS VSS a_n1962_4406# VSS sky130_fd_pr__nfet_01v8 ad=0.29 pd=2.58 as=0.145 ps=1.29 w=1 l=1
X136 VOUT IBIAS a_n1962_4406# VSS sky130_fd_pr__nfet_01v8 ad=0.145 pd=1.29 as=0.145 ps=1.29 w=1 l=1
X137 VSS VSS VSS VSS sky130_fd_pr__nfet_01v8 ad=0.145 pd=1.29 as=0 ps=0 w=1 l=1
X138 VSS EN a_n1962_4406# VSS sky130_fd_pr__nfet_01v8 ad=0.145 pd=1.29 as=0.145 ps=1.29 w=1 l=1
X139 a_n1962_4406# IBIAS VOUT VSS sky130_fd_pr__nfet_01v8 ad=0.145 pd=1.29 as=0.145 ps=1.29 w=1 l=1
X140 a_3868_4185# EN VSS VSS sky130_fd_pr__nfet_01v8 ad=0.145 pd=1.29 as=0.145 ps=1.29 w=1 l=1
X141 VSS EN a_3868_4185# VSS sky130_fd_pr__nfet_01v8 ad=0.145 pd=1.29 as=0.145 ps=1.29 w=1 l=1
X142 VSS EN a_3868_4185# VSS sky130_fd_pr__nfet_01v8 ad=0.145 pd=1.29 as=0.145 ps=1.29 w=1 l=1
X143 a_n935_8875# a_n935_8875# VDD VDD sky130_fd_pr__pfet_01v8 ad=0.145 pd=1.29 as=0.145 ps=1.29 w=1 l=1
X144 VDD VDD VDD VDD sky130_fd_pr__pfet_01v8 ad=0.145 pd=1.29 as=0 ps=0 w=1 l=1
X145 a_n1962_4406# IBIAS VOUT VSS sky130_fd_pr__nfet_01v8 ad=0.145 pd=1.29 as=0.145 ps=1.29 w=1 l=1
X146 a_8862_4192# EN VSS VSS sky130_fd_pr__nfet_01v8 ad=0.145 pd=1.29 as=0.145 ps=1.29 w=1 l=1
X147 a_3868_4185# EN VSS VSS sky130_fd_pr__nfet_01v8 ad=0.145 pd=1.29 as=0.145 ps=1.29 w=1 l=1
X148 VSS VSS a_3868_4185# VSS sky130_fd_pr__nfet_01v8 ad=0.29 pd=2.58 as=0.145 ps=1.29 w=1 l=1
X149 VDD a_n935_8875# a_n935_8875# VDD sky130_fd_pr__pfet_01v8 ad=0.145 pd=1.29 as=0.145 ps=1.29 w=1 l=1
X150 VOUT IBIAS a_n1962_4406# VSS sky130_fd_pr__nfet_01v8 ad=0.145 pd=1.29 as=0.145 ps=1.29 w=1 l=1
X151 VSS EN a_3868_4185# VSS sky130_fd_pr__nfet_01v8 ad=0.145 pd=1.29 as=0.145 ps=1.29 w=1 l=1
X152 a_3868_4185# VSS VSS VSS sky130_fd_pr__nfet_01v8 ad=0.145 pd=1.29 as=0.29 ps=2.58 w=1 l=1
X153 VSS VSS VSS VSS sky130_fd_pr__nfet_01v8 ad=0.29 pd=2.58 as=0 ps=0 w=1 l=1
X154 a_3868_4185# VSS VSS VSS sky130_fd_pr__nfet_01v8 ad=0.145 pd=1.29 as=0.29 ps=2.58 w=1 l=1
X155 VSS EN a_3868_4185# VSS sky130_fd_pr__nfet_01v8 ad=0.145 pd=1.29 as=0.145 ps=1.29 w=1 l=1
X156 VSS EN a_n1962_4406# VSS sky130_fd_pr__nfet_01v8 ad=0.145 pd=1.29 as=0.145 ps=1.29 w=1 l=1
X157 a_3868_4185# IBIAS a_3329_8823# VSS sky130_fd_pr__nfet_01v8 ad=0.145 pd=1.29 as=0.145 ps=1.29 w=1 l=1
X158 a_3868_4185# IBIAS a_3329_8823# VSS sky130_fd_pr__nfet_01v8 ad=0.145 pd=1.29 as=0.145 ps=1.29 w=1 l=1
X159 a_3329_8823# VN a_n935_8875# VSS sky130_fd_pr__nfet_01v8 ad=0.145 pd=1.29 as=0.145 ps=1.29 w=1 l=1
X160 a_3868_4185# IBIAS a_3329_8823# VSS sky130_fd_pr__nfet_01v8 ad=0.145 pd=1.29 as=0.145 ps=1.29 w=1 l=1
X161 VDD VDD VDD VDD sky130_fd_pr__pfet_01v8 ad=0.145 pd=1.29 as=0 ps=0 w=1 l=1
X162 a_n1962_4406# VSS VSS VSS sky130_fd_pr__nfet_01v8 ad=0.145 pd=1.29 as=0.29 ps=2.58 w=1 l=1
X163 a_n1962_4406# VSS VSS VSS sky130_fd_pr__nfet_01v8 ad=0.145 pd=1.29 as=0.29 ps=2.58 w=1 l=1
X164 IBIAS IBIAS a_8862_4192# VSS sky130_fd_pr__nfet_01v8 ad=0.145 pd=1.29 as=0.145 ps=1.29 w=1 l=1
X165 VSS EN a_8862_4192# VSS sky130_fd_pr__nfet_01v8 ad=0.145 pd=1.29 as=0.145 ps=1.29 w=1 l=1
X166 a_3868_4185# IBIAS a_3329_8823# VSS sky130_fd_pr__nfet_01v8 ad=0.145 pd=1.29 as=0.145 ps=1.29 w=1 l=1
X167 a_3329_8823# IBIAS a_3868_4185# VSS sky130_fd_pr__nfet_01v8 ad=0.145 pd=1.29 as=0.145 ps=1.29 w=1 l=1
X168 a_n1962_4406# EN VSS VSS sky130_fd_pr__nfet_01v8 ad=0.145 pd=1.29 as=0.145 ps=1.29 w=1 l=1
X169 a_n1962_4406# EN VSS VSS sky130_fd_pr__nfet_01v8 ad=0.145 pd=1.29 as=0.145 ps=1.29 w=1 l=1
X170 a_3329_8823# IBIAS a_3868_4185# VSS sky130_fd_pr__nfet_01v8 ad=0.145 pd=1.29 as=0.145 ps=1.29 w=1 l=1
X171 VDD VDD VDD VDD sky130_fd_pr__pfet_01v8 ad=0.29 pd=2.58 as=0 ps=0 w=1 l=1
X172 VSS EN a_8862_4192# VSS sky130_fd_pr__nfet_01v8 ad=0.145 pd=1.29 as=0.145 ps=1.29 w=1 l=1
X173 a_8862_4192# EN VSS VSS sky130_fd_pr__nfet_01v8 ad=0.145 pd=1.29 as=0.145 ps=1.29 w=1 l=1
X174 VDD a_n735_8972# VOUT VDD sky130_fd_pr__pfet_01v8 ad=0.145 pd=1.29 as=0.145 ps=1.29 w=1 l=1
X175 a_n1962_4406# IBIAS VOUT VSS sky130_fd_pr__nfet_01v8 ad=0.145 pd=1.29 as=0.145 ps=1.29 w=1 l=1
X176 a_8862_4192# IBIAS IBIAS VSS sky130_fd_pr__nfet_01v8 ad=0.145 pd=1.29 as=0.145 ps=1.29 w=1 l=1
X177 a_3329_8823# IBIAS a_3868_4185# VSS sky130_fd_pr__nfet_01v8 ad=0.145 pd=1.29 as=0.145 ps=1.29 w=1 l=1
X178 VDD a_n935_8875# a_n735_8972# VDD sky130_fd_pr__pfet_01v8 ad=0.145 pd=1.29 as=0.145 ps=1.29 w=1 l=1
X179 a_8862_4192# EN VSS VSS sky130_fd_pr__nfet_01v8 ad=0.145 pd=1.29 as=0.145 ps=1.29 w=1 l=1
X180 VSS VSS VSS VSS sky130_fd_pr__nfet_01v8 ad=0.29 pd=2.58 as=0 ps=0 w=1 l=1
X181 VOUT a_n735_8972# VDD VDD sky130_fd_pr__pfet_01v8 ad=0.145 pd=1.29 as=0.145 ps=1.29 w=1 l=1
X182 VSS VSS a_3868_4185# VSS sky130_fd_pr__nfet_01v8 ad=0.29 pd=2.58 as=0.145 ps=1.29 w=1 l=1
X183 a_3868_4185# VSS VSS VSS sky130_fd_pr__nfet_01v8 ad=0.145 pd=1.29 as=0.29 ps=2.58 w=1 l=1
X184 a_n935_8875# a_n935_8875# VDD VDD sky130_fd_pr__pfet_01v8 ad=0.145 pd=1.29 as=0.145 ps=1.29 w=1 l=1
X185 a_3868_4185# IBIAS a_3329_8823# VSS sky130_fd_pr__nfet_01v8 ad=0.145 pd=1.29 as=0.145 ps=1.29 w=1 l=1
X186 a_3329_8823# VSS VSS VSS sky130_fd_pr__nfet_01v8 ad=0.145 pd=1.29 as=0.29 ps=2.58 w=1 l=1
X187 VSS EN a_8862_4192# VSS sky130_fd_pr__nfet_01v8 ad=0.145 pd=1.29 as=0.145 ps=1.29 w=1 l=1
X188 a_3329_8823# IBIAS a_3868_4185# VSS sky130_fd_pr__nfet_01v8 ad=0.145 pd=1.29 as=0.145 ps=1.29 w=1 l=1
X189 VDD VDD VDD VDD sky130_fd_pr__pfet_01v8 ad=0.145 pd=1.29 as=0 ps=0 w=1 l=1
X190 a_3868_4185# EN VSS VSS sky130_fd_pr__nfet_01v8 ad=0.145 pd=1.29 as=0.145 ps=1.29 w=1 l=1
X191 VOUT a_n735_8972# VDD VDD sky130_fd_pr__pfet_01v8 ad=0.145 pd=1.29 as=0.145 ps=1.29 w=1 l=1
X192 VOUT a_n735_8972# VDD VDD sky130_fd_pr__pfet_01v8 ad=0.145 pd=1.29 as=0.145 ps=1.29 w=1 l=1
X193 a_n1962_4406# EN VSS VSS sky130_fd_pr__nfet_01v8 ad=0.145 pd=1.29 as=0.145 ps=1.29 w=1 l=1
X194 a_8862_4192# EN VSS VSS sky130_fd_pr__nfet_01v8 ad=0.145 pd=1.29 as=0.145 ps=1.29 w=1 l=1
X195 VSS VSS a_3329_8823# VSS sky130_fd_pr__nfet_01v8 ad=0.29 pd=2.58 as=0.145 ps=1.29 w=1 l=1
X196 a_n1962_4406# EN VSS VSS sky130_fd_pr__nfet_01v8 ad=0.145 pd=1.29 as=0.145 ps=1.29 w=1 l=1
X197 VDD VDD VDD VDD sky130_fd_pr__pfet_01v8 ad=0.29 pd=2.58 as=0 ps=0 w=1 l=1
X198 a_3329_8823# VP a_n735_8972# VSS sky130_fd_pr__nfet_01v8 ad=0.145 pd=1.29 as=0.145 ps=1.29 w=1 l=1
X199 VSS VSS a_n1962_4406# VSS sky130_fd_pr__nfet_01v8 ad=0.29 pd=2.58 as=0.145 ps=1.29 w=1 l=1
X200 a_3329_8823# VN a_n935_8875# VSS sky130_fd_pr__nfet_01v8 ad=0.145 pd=1.29 as=0.145 ps=1.29 w=1 l=1
X201 VOUT IBIAS a_n1962_4406# VSS sky130_fd_pr__nfet_01v8 ad=0.145 pd=1.29 as=0.145 ps=1.29 w=1 l=1
X202 a_n935_8875# VN a_3329_8823# VSS sky130_fd_pr__nfet_01v8 ad=0.145 pd=1.29 as=0.145 ps=1.29 w=1 l=1
X203 VDD VDD VDD VDD sky130_fd_pr__pfet_01v8 ad=0.29 pd=2.58 as=0 ps=0 w=1 l=1
X204 a_n735_8972# a_n935_8875# VDD VDD sky130_fd_pr__pfet_01v8 ad=0.145 pd=1.29 as=0.145 ps=1.29 w=1 l=1
X205 VOUT a_n735_8972# VDD VDD sky130_fd_pr__pfet_01v8 ad=0.145 pd=1.29 as=0.145 ps=1.29 w=1 l=1
X206 VSS VSS VSS VSS sky130_fd_pr__nfet_01v8 ad=0.145 pd=1.29 as=0 ps=0 w=1 l=1
X207 a_n1962_4406# EN VSS VSS sky130_fd_pr__nfet_01v8 ad=0.145 pd=1.29 as=0.145 ps=1.29 w=1 l=1
X208 a_n1962_4406# IBIAS VOUT VSS sky130_fd_pr__nfet_01v8 ad=0.145 pd=1.29 as=0.145 ps=1.29 w=1 l=1
X209 VSS VSS VSS VSS sky130_fd_pr__nfet_01v8 ad=0.145 pd=1.29 as=0 ps=0 w=1 l=1
X210 VDD a_n935_8875# a_n735_8972# VDD sky130_fd_pr__pfet_01v8 ad=0.145 pd=1.29 as=0.145 ps=1.29 w=1 l=1
X211 a_n735_8972# VP a_3329_8823# VSS sky130_fd_pr__nfet_01v8 ad=0.145 pd=1.29 as=0.145 ps=1.29 w=1 l=1
X212 a_3329_8823# VP a_n735_8972# VSS sky130_fd_pr__nfet_01v8 ad=0.145 pd=1.29 as=0.145 ps=1.29 w=1 l=1
X213 a_n1962_4406# EN VSS VSS sky130_fd_pr__nfet_01v8 ad=0.145 pd=1.29 as=0.145 ps=1.29 w=1 l=1
X214 VDD VDD VDD VDD sky130_fd_pr__pfet_01v8 ad=0.29 pd=2.58 as=0 ps=0 w=1 l=1
X215 VSS VSS a_n1962_4406# VSS sky130_fd_pr__nfet_01v8 ad=0.145 pd=1.29 as=0.145 ps=1.29 w=1 l=1
X216 a_n1962_4406# IBIAS VOUT VSS sky130_fd_pr__nfet_01v8 ad=0.145 pd=1.29 as=0.145 ps=1.29 w=1 l=1
X217 VSS EN a_n1962_4406# VSS sky130_fd_pr__nfet_01v8 ad=0.145 pd=1.29 as=0.145 ps=1.29 w=1 l=1
X218 VOUT IBIAS a_n1962_4406# VSS sky130_fd_pr__nfet_01v8 ad=0.145 pd=1.29 as=0.145 ps=1.29 w=1 l=1
X219 a_n735_8972# VP a_3329_8823# VSS sky130_fd_pr__nfet_01v8 ad=0.145 pd=1.29 as=0.145 ps=1.29 w=1 l=1
X220 a_3329_8823# VP a_n735_8972# VSS sky130_fd_pr__nfet_01v8 ad=0.145 pd=1.29 as=0.145 ps=1.29 w=1 l=1
X221 a_n735_8972# VP a_3329_8823# VSS sky130_fd_pr__nfet_01v8 ad=0.145 pd=1.29 as=0.145 ps=1.29 w=1 l=1
X222 a_n1962_4406# VSS VSS VSS sky130_fd_pr__nfet_01v8 ad=0.145 pd=1.29 as=0.29 ps=2.58 w=1 l=1
X223 VSS EN a_n1962_4406# VSS sky130_fd_pr__nfet_01v8 ad=0.145 pd=1.29 as=0.145 ps=1.29 w=1 l=1
X224 a_n1962_4406# VSS VSS VSS sky130_fd_pr__nfet_01v8 ad=0.145 pd=1.29 as=0.145 ps=1.29 w=1 l=1
X225 VOUT IBIAS a_n1962_4406# VSS sky130_fd_pr__nfet_01v8 ad=0.145 pd=1.29 as=0.145 ps=1.29 w=1 l=1
X226 VOUT IBIAS a_n1962_4406# VSS sky130_fd_pr__nfet_01v8 ad=0.145 pd=1.29 as=0.145 ps=1.29 w=1 l=1
X227 VOUT IBIAS a_n1962_4406# VSS sky130_fd_pr__nfet_01v8 ad=0.145 pd=1.29 as=0.145 ps=1.29 w=1 l=1
X228 VSS EN a_8862_4192# VSS sky130_fd_pr__nfet_01v8 ad=0.145 pd=1.29 as=0.145 ps=1.29 w=1 l=1
X229 a_8862_4192# EN VSS VSS sky130_fd_pr__nfet_01v8 ad=0.145 pd=1.29 as=0.145 ps=1.29 w=1 l=1
X230 VDD a_n935_8875# a_n935_8875# VDD sky130_fd_pr__pfet_01v8 ad=0.145 pd=1.29 as=0.145 ps=1.29 w=1 l=1
X231 a_3329_8823# VSS VSS VSS sky130_fd_pr__nfet_01v8 ad=0.145 pd=1.29 as=0.29 ps=2.58 w=1 l=1
X232 VOUT IBIAS a_n1962_4406# VSS sky130_fd_pr__nfet_01v8 ad=0.145 pd=1.29 as=0.145 ps=1.29 w=1 l=1
X233 a_n1962_4406# IBIAS VOUT VSS sky130_fd_pr__nfet_01v8 ad=0.145 pd=1.29 as=0.145 ps=1.29 w=1 l=1
X234 a_3329_8823# IBIAS a_3868_4185# VSS sky130_fd_pr__nfet_01v8 ad=0.145 pd=1.29 as=0.145 ps=1.29 w=1 l=1
X235 VSS VSS a_3868_4185# VSS sky130_fd_pr__nfet_01v8 ad=0.29 pd=2.58 as=0.145 ps=1.29 w=1 l=1
X236 VOUT a_n735_8972# VDD VDD sky130_fd_pr__pfet_01v8 ad=0.145 pd=1.29 as=0.145 ps=1.29 w=1 l=1
X237 VOUT IBIAS a_n1962_4406# VSS sky130_fd_pr__nfet_01v8 ad=0.145 pd=1.29 as=0.145 ps=1.29 w=1 l=1
X238 a_n1962_4406# IBIAS VOUT VSS sky130_fd_pr__nfet_01v8 ad=0.145 pd=1.29 as=0.145 ps=1.29 w=1 l=1
X239 VSS VSS a_3868_4185# VSS sky130_fd_pr__nfet_01v8 ad=0.29 pd=2.58 as=0.145 ps=1.29 w=1 l=1
X240 VSS VSS VSS VSS sky130_fd_pr__nfet_01v8 ad=0.29 pd=2.58 as=0 ps=0 w=1 l=1
X241 a_n1962_4406# IBIAS VOUT VSS sky130_fd_pr__nfet_01v8 ad=0.145 pd=1.29 as=0.145 ps=1.29 w=1 l=1
X242 VSS VSS VSS VSS sky130_fd_pr__nfet_01v8 ad=0.145 pd=1.29 as=0 ps=0 w=1 l=1
X243 VSS EN a_8862_4192# VSS sky130_fd_pr__nfet_01v8 ad=0.145 pd=1.29 as=0.145 ps=1.29 w=1 l=1
X244 VOUT IBIAS a_n1962_4406# VSS sky130_fd_pr__nfet_01v8 ad=0.145 pd=1.29 as=0.145 ps=1.29 w=1 l=1
X245 a_n1962_4406# IBIAS VOUT VSS sky130_fd_pr__nfet_01v8 ad=0.145 pd=1.29 as=0.145 ps=1.29 w=1 l=1
X246 a_n1962_4406# IBIAS VOUT VSS sky130_fd_pr__nfet_01v8 ad=0.145 pd=1.29 as=0.145 ps=1.29 w=1 l=1
X247 a_3868_4185# IBIAS a_3329_8823# VSS sky130_fd_pr__nfet_01v8 ad=0.145 pd=1.29 as=0.145 ps=1.29 w=1 l=1
X248 VSS VSS IBIAS VSS sky130_fd_pr__nfet_01v8 ad=0.29 pd=2.58 as=0.145 ps=1.29 w=1 l=1
X249 a_n1962_4406# EN VSS VSS sky130_fd_pr__nfet_01v8 ad=0.145 pd=1.29 as=0.145 ps=1.29 w=1 l=1
X250 VOUT IBIAS a_n1962_4406# VSS sky130_fd_pr__nfet_01v8 ad=0.145 pd=1.29 as=0.145 ps=1.29 w=1 l=1
X251 a_n1962_4406# EN VSS VSS sky130_fd_pr__nfet_01v8 ad=0.145 pd=1.29 as=0.145 ps=1.29 w=1 l=1
X252 a_3868_4185# IBIAS a_3329_8823# VSS sky130_fd_pr__nfet_01v8 ad=0.145 pd=1.29 as=0.145 ps=1.29 w=1 l=1
X253 VSS EN a_8862_4192# VSS sky130_fd_pr__nfet_01v8 ad=0.145 pd=1.29 as=0.145 ps=1.29 w=1 l=1
X254 VDD VDD VDD VDD sky130_fd_pr__pfet_01v8 ad=0.29 pd=2.58 as=0 ps=0 w=1 l=1
X255 a_n735_8972# VP a_3329_8823# VSS sky130_fd_pr__nfet_01v8 ad=0.145 pd=1.29 as=0.145 ps=1.29 w=1 l=1
X256 VSS EN a_n1962_4406# VSS sky130_fd_pr__nfet_01v8 ad=0.145 pd=1.29 as=0.145 ps=1.29 w=1 l=1
X257 VSS VSS VSS VSS sky130_fd_pr__nfet_01v8 ad=0.145 pd=1.29 as=0 ps=0 w=1 l=1
X258 a_8862_4192# EN VSS VSS sky130_fd_pr__nfet_01v8 ad=0.145 pd=1.29 as=0.145 ps=1.29 w=1 l=1
X259 a_3868_4185# IBIAS a_3329_8823# VSS sky130_fd_pr__nfet_01v8 ad=0.145 pd=1.29 as=0.145 ps=1.29 w=1 l=1
X260 VSS EN a_n1962_4406# VSS sky130_fd_pr__nfet_01v8 ad=0.145 pd=1.29 as=0.145 ps=1.29 w=1 l=1
X261 a_3329_8823# IBIAS a_3868_4185# VSS sky130_fd_pr__nfet_01v8 ad=0.145 pd=1.29 as=0.145 ps=1.29 w=1 l=1
X262 a_8862_4192# EN VSS VSS sky130_fd_pr__nfet_01v8 ad=0.145 pd=1.29 as=0.145 ps=1.29 w=1 l=1
X263 VSS EN a_3868_4185# VSS sky130_fd_pr__nfet_01v8 ad=0.145 pd=1.29 as=0.145 ps=1.29 w=1 l=1
X264 a_n735_8972# a_n935_8875# VDD VDD sky130_fd_pr__pfet_01v8 ad=0.145 pd=1.29 as=0.145 ps=1.29 w=1 l=1
X265 VDD a_n735_8972# VOUT VDD sky130_fd_pr__pfet_01v8 ad=0.145 pd=1.29 as=0.145 ps=1.29 w=1 l=1
X266 a_n1962_4406# IBIAS VOUT VSS sky130_fd_pr__nfet_01v8 ad=0.145 pd=1.29 as=0.145 ps=1.29 w=1 l=1
X267 a_3329_8823# VN a_n935_8875# VSS sky130_fd_pr__nfet_01v8 ad=0.145 pd=1.29 as=0.145 ps=1.29 w=1 l=1
X268 VOUT a_n735_8972# VDD VDD sky130_fd_pr__pfet_01v8 ad=0.145 pd=1.29 as=0.145 ps=1.29 w=1 l=1
X269 VSS EN a_n1962_4406# VSS sky130_fd_pr__nfet_01v8 ad=0.145 pd=1.29 as=0.145 ps=1.29 w=1 l=1
X270 a_3868_4185# IBIAS a_3329_8823# VSS sky130_fd_pr__nfet_01v8 ad=0.145 pd=1.29 as=0.145 ps=1.29 w=1 l=1
X271 VSS VSS a_3868_4185# VSS sky130_fd_pr__nfet_01v8 ad=0.29 pd=2.58 as=0.145 ps=1.29 w=1 l=1
X272 a_3868_4185# VSS VSS VSS sky130_fd_pr__nfet_01v8 ad=0.145 pd=1.29 as=0.29 ps=2.58 w=1 l=1
X273 a_3329_8823# IBIAS a_3868_4185# VSS sky130_fd_pr__nfet_01v8 ad=0.145 pd=1.29 as=0.145 ps=1.29 w=1 l=1
X274 VDD a_n935_8875# a_n735_8972# VDD sky130_fd_pr__pfet_01v8 ad=0.145 pd=1.29 as=0.145 ps=1.29 w=1 l=1
X275 VSS VSS a_n935_8875# VSS sky130_fd_pr__nfet_01v8 ad=0.145 pd=1.29 as=0.145 ps=1.29 w=1 l=1
X276 a_n935_8875# VN a_3329_8823# VSS sky130_fd_pr__nfet_01v8 ad=0.145 pd=1.29 as=0.145 ps=1.29 w=1 l=1
X277 VDD VDD VDD VDD sky130_fd_pr__pfet_01v8 ad=0.29 pd=2.58 as=0 ps=0 w=1 l=1
X278 VSS EN a_n1962_4406# VSS sky130_fd_pr__nfet_01v8 ad=0.145 pd=1.29 as=0.145 ps=1.29 w=1 l=1
X279 a_3868_4185# IBIAS a_3329_8823# VSS sky130_fd_pr__nfet_01v8 ad=0.145 pd=1.29 as=0.145 ps=1.29 w=1 l=1
X280 VSS VSS VSS VSS sky130_fd_pr__nfet_01v8 ad=0.145 pd=1.29 as=0 ps=0 w=1 l=1
X281 VSS EN a_8862_4192# VSS sky130_fd_pr__nfet_01v8 ad=0.145 pd=1.29 as=0.145 ps=1.29 w=1 l=1
X282 a_3329_8823# IBIAS a_3868_4185# VSS sky130_fd_pr__nfet_01v8 ad=0.145 pd=1.29 as=0.145 ps=1.29 w=1 l=1
X283 VOUT a_n735_8972# VDD VDD sky130_fd_pr__pfet_01v8 ad=0.145 pd=1.29 as=0.145 ps=1.29 w=1 l=1
X284 a_3868_4185# EN VSS VSS sky130_fd_pr__nfet_01v8 ad=0.145 pd=1.29 as=0.145 ps=1.29 w=1 l=1
X285 VDD a_n735_8972# VOUT VDD sky130_fd_pr__pfet_01v8 ad=0.145 pd=1.29 as=0.145 ps=1.29 w=1 l=1
X286 a_8862_4192# EN VSS VSS sky130_fd_pr__nfet_01v8 ad=0.145 pd=1.29 as=0.145 ps=1.29 w=1 l=1
X287 VSS EN a_3868_4185# VSS sky130_fd_pr__nfet_01v8 ad=0.145 pd=1.29 as=0.145 ps=1.29 w=1 l=1
X288 VDD a_n935_8875# a_n935_8875# VDD sky130_fd_pr__pfet_01v8 ad=0.145 pd=1.29 as=0.145 ps=1.29 w=1 l=1
X289 a_n935_8875# VN a_3329_8823# VSS sky130_fd_pr__nfet_01v8 ad=0.145 pd=1.29 as=0.145 ps=1.29 w=1 l=1
X290 VDD VDD VDD VDD sky130_fd_pr__pfet_01v8 ad=0.145 pd=1.29 as=0 ps=0 w=1 l=1
X291 a_n935_8875# VSS VSS VSS sky130_fd_pr__nfet_01v8 ad=0.145 pd=1.29 as=0.145 ps=1.29 w=1 l=1
X292 VSS VSS VSS VSS sky130_fd_pr__nfet_01v8 ad=0.145 pd=1.29 as=0 ps=0 w=1 l=1
X293 VOUT a_n735_8972# VDD VDD sky130_fd_pr__pfet_01v8 ad=0.145 pd=1.29 as=0.145 ps=1.29 w=1 l=1
X294 VSS VSS a_n1962_4406# VSS sky130_fd_pr__nfet_01v8 ad=0.29 pd=2.58 as=0.145 ps=1.29 w=1 l=1
X295 a_3868_4185# IBIAS a_3329_8823# VSS sky130_fd_pr__nfet_01v8 ad=0.145 pd=1.29 as=0.145 ps=1.29 w=1 l=1
X296 VSS VSS VSS VSS sky130_fd_pr__nfet_01v8 ad=0.145 pd=1.29 as=0 ps=0 w=1 l=1
X297 VDD a_n735_8972# VOUT VDD sky130_fd_pr__pfet_01v8 ad=0.145 pd=1.29 as=0.145 ps=1.29 w=1 l=1
X298 a_n1962_4406# VSS VSS VSS sky130_fd_pr__nfet_01v8 ad=0.145 pd=1.29 as=0.145 ps=1.29 w=1 l=1
X299 VSS VSS VSS VSS sky130_fd_pr__nfet_01v8 ad=0.29 pd=2.58 as=0 ps=0 w=1 l=1
X300 VDD a_n735_8972# VOUT VDD sky130_fd_pr__pfet_01v8 ad=0.145 pd=1.29 as=0.145 ps=1.29 w=1 l=1
X301 VSS EN a_n1962_4406# VSS sky130_fd_pr__nfet_01v8 ad=0.145 pd=1.29 as=0.145 ps=1.29 w=1 l=1
X302 VSS VSS VSS VSS sky130_fd_pr__nfet_01v8 ad=0.29 pd=2.58 as=0 ps=0 w=1 l=1
X303 VOUT a_n735_8972# VDD VDD sky130_fd_pr__pfet_01v8 ad=0.145 pd=1.29 as=0.145 ps=1.29 w=1 l=1
X304 VOUT IBIAS a_n1962_4406# VSS sky130_fd_pr__nfet_01v8 ad=0.145 pd=1.29 as=0.145 ps=1.29 w=1 l=1
X305 a_n1962_4406# VSS VSS VSS sky130_fd_pr__nfet_01v8 ad=0.145 pd=1.29 as=0.29 ps=2.58 w=1 l=1
X306 a_n1962_4406# EN VSS VSS sky130_fd_pr__nfet_01v8 ad=0.145 pd=1.29 as=0.145 ps=1.29 w=1 l=1
X307 VSS VSS a_3329_8823# VSS sky130_fd_pr__nfet_01v8 ad=0.29 pd=2.58 as=0.145 ps=1.29 w=1 l=1