* NGSPICE file created from sky130_op_amp.ext - technology: sky130A

.subckt sky130_op_amp VDD IBIAS VN VP VOUT EN VSS
X0 a_8862_4192.t27 EN.t0 VSS.t311 VSS.t215 sky130_fd_pr__nfet_01v8 ad=0.145 pd=1.29 as=0.145 ps=1.29 w=1 l=1
X1 VDD.t97 VDD.t96 VDD.t97 VDD.t44 sky130_fd_pr__pfet_01v8 ad=0.145 pd=1.29 as=0 ps=0 w=1 l=1
X2 VDD.t95 VDD.t93 VDD.t94 VDD.t47 sky130_fd_pr__pfet_01v8 ad=0.29 pd=2.58 as=0 ps=0 w=1 l=1
X3 a_3868_4185.t39 IBIAS.t10 a_3329_8823.t39 VSS.t0 sky130_fd_pr__nfet_01v8 ad=0.145 pd=1.29 as=0.145 ps=1.29 w=1 l=1
X4 a_n1962_4406.t59 IBIAS.t11 VOUT.t21 VSS.t6 sky130_fd_pr__nfet_01v8 ad=0.145 pd=1.29 as=0.145 ps=1.29 w=1 l=1
X5 a_n1962_4406.t58 IBIAS.t12 VOUT.t53 VSS.t6 sky130_fd_pr__nfet_01v8 ad=0.145 pd=1.29 as=0.145 ps=1.29 w=1 l=1
X6 VSS.t211 VSS.t209 VSS.t210 VSS.t30 sky130_fd_pr__nfet_01v8 ad=0.29 pd=2.58 as=0 ps=0 w=1 l=1
X7 a_3329_8823.t38 IBIAS.t13 a_3868_4185.t38 VSS.t1 sky130_fd_pr__nfet_01v8 ad=0.145 pd=1.29 as=0.145 ps=1.29 w=1 l=1
X8 VSS.t208 VSS.t207 VSS.t208 VSS.t64 sky130_fd_pr__nfet_01v8 ad=0.145 pd=1.29 as=0 ps=0 w=1 l=1
X9 VDD.t92 VDD.t91 VDD.t92 VDD.t71 sky130_fd_pr__pfet_01v8 ad=0.145 pd=1.29 as=0 ps=0 w=1 l=1
X10 a_3868_4185.t37 IBIAS.t14 a_3329_8823.t8 VSS.t11 sky130_fd_pr__nfet_01v8 ad=0.145 pd=1.29 as=0.145 ps=1.29 w=1 l=1
X11 a_n735_8972.t23 VP.t0 a_3329_8823.t56 VSS.t2 sky130_fd_pr__nfet_01v8 ad=0.145 pd=1.29 as=0.145 ps=1.29 w=1 l=1
X12 VSS.t310 EN.t1 a_n1962_4406.t123 VSS.t77 sky130_fd_pr__nfet_01v8 ad=0.145 pd=1.29 as=0.145 ps=1.29 w=1 l=1
X13 a_3868_4185.t36 IBIAS.t15 a_3329_8823.t17 VSS.t7 sky130_fd_pr__nfet_01v8 ad=0.145 pd=1.29 as=0.145 ps=1.29 w=1 l=1
X14 a_3329_8823.t66 VN.t0 a_n935_8875.t15 VSS.t4 sky130_fd_pr__nfet_01v8 ad=0.145 pd=1.29 as=0.145 ps=1.29 w=1 l=1
X15 VDD.t19 a_n735_8972.t27 VOUT.t67 VDD.t15 sky130_fd_pr__pfet_01v8 ad=0.145 pd=1.29 as=0.145 ps=1.29 w=1 l=1
X16 a_n1962_4406.t122 EN.t2 VSS.t309 VSS.t8 sky130_fd_pr__nfet_01v8 ad=0.145 pd=1.29 as=0.145 ps=1.29 w=1 l=1
X17 a_3329_8823.t65 VN.t1 a_n935_8875.t14 VSS.t5 sky130_fd_pr__nfet_01v8 ad=0.145 pd=1.29 as=0.145 ps=1.29 w=1 l=1
X18 VDD.t36 a_n735_8972.t28 VOUT.t77 VDD.t5 sky130_fd_pr__pfet_01v8 ad=0.145 pd=1.29 as=0.145 ps=1.29 w=1 l=1
X19 VSS.t206 VSS.t205 a_3329_8823.t55 VSS.t64 sky130_fd_pr__nfet_01v8 ad=0.29 pd=2.58 as=0.145 ps=1.29 w=1 l=1
X20 a_n1962_4406.t57 IBIAS.t16 VOUT.t45 VSS.t212 sky130_fd_pr__nfet_01v8 ad=0.145 pd=1.29 as=0.145 ps=1.29 w=1 l=1
X21 a_n1962_4406.t56 IBIAS.t17 VOUT.t2 VSS.t212 sky130_fd_pr__nfet_01v8 ad=0.145 pd=1.29 as=0.145 ps=1.29 w=1 l=1
X22 VSS.t308 EN.t3 a_n1962_4406.t121 VSS.t19 sky130_fd_pr__nfet_01v8 ad=0.145 pd=1.29 as=0.145 ps=1.29 w=1 l=1
X23 a_3329_8823.t43 VN.t2 a_n935_8875.t13 VSS.t5 sky130_fd_pr__nfet_01v8 ad=0.145 pd=1.29 as=0.145 ps=1.29 w=1 l=1
X24 VDD.t90 VDD.t89 VDD.t90 VDD.t71 sky130_fd_pr__pfet_01v8 ad=0.145 pd=1.29 as=0 ps=0 w=1 l=1
X25 a_n1962_4406.t79 VSS.t203 VSS.t204 VSS.t20 sky130_fd_pr__nfet_01v8 ad=0.145 pd=1.29 as=0.145 ps=1.29 w=1 l=1
X26 a_n1962_4406.t120 EN.t4 VSS.t307 VSS.t20 sky130_fd_pr__nfet_01v8 ad=0.145 pd=1.29 as=0.145 ps=1.29 w=1 l=1
X27 VOUT.t38 IBIAS.t18 a_n1962_4406.t55 VSS.t12 sky130_fd_pr__nfet_01v8 ad=0.145 pd=1.29 as=0.145 ps=1.29 w=1 l=1
X28 VSS.t202 VSS.t201 a_n1962_4406.t78 VSS.t56 sky130_fd_pr__nfet_01v8 ad=0.29 pd=2.58 as=0.145 ps=1.29 w=1 l=1
X29 VDD.t88 VDD.t87 VDD.t88 VDD.t44 sky130_fd_pr__pfet_01v8 ad=0.145 pd=1.29 as=0 ps=0 w=1 l=1
X30 a_n935_8875.t12 VN.t3 a_3329_8823.t62 VSS.t84 sky130_fd_pr__nfet_01v8 ad=0.145 pd=1.29 as=0.145 ps=1.29 w=1 l=1
X31 VOUT.t46 IBIAS.t19 a_n1962_4406.t54 VSS.t9 sky130_fd_pr__nfet_01v8 ad=0.145 pd=1.29 as=0.145 ps=1.29 w=1 l=1
X32 VDD.t86 VDD.t84 VDD.t85 VDD.t47 sky130_fd_pr__pfet_01v8 ad=0.29 pd=2.58 as=0 ps=0 w=1 l=1
X33 a_3329_8823.t63 VP.t1 a_n735_8972.t22 VSS.t89 sky130_fd_pr__nfet_01v8 ad=0.145 pd=1.29 as=0.145 ps=1.29 w=1 l=1
X34 VSS.t306 EN.t5 a_n1962_4406.t119 VSS.t9 sky130_fd_pr__nfet_01v8 ad=0.145 pd=1.29 as=0.145 ps=1.29 w=1 l=1
X35 VDD.t17 a_n735_8972.t29 VOUT.t65 VDD.t15 sky130_fd_pr__pfet_01v8 ad=0.145 pd=1.29 as=0.145 ps=1.29 w=1 l=1
X36 VDD.t16 a_n735_8972.t30 VOUT.t64 VDD.t15 sky130_fd_pr__pfet_01v8 ad=0.145 pd=1.29 as=0.145 ps=1.29 w=1 l=1
X37 VSS.t198 VSS.t197 VSS.t198 VSS.t56 sky130_fd_pr__nfet_01v8 ad=0.145 pd=1.29 as=0 ps=0 w=1 l=1
X38 a_n1962_4406.t53 IBIAS.t20 VOUT.t42 VSS.t45 sky130_fd_pr__nfet_01v8 ad=0.145 pd=1.29 as=0.145 ps=1.29 w=1 l=1
X39 VOUT.t35 IBIAS.t21 a_n1962_4406.t52 VSS.t16 sky130_fd_pr__nfet_01v8 ad=0.145 pd=1.29 as=0.145 ps=1.29 w=1 l=1
X40 VSS.t200 VSS.t199 a_3868_4185.t55 VSS.t27 sky130_fd_pr__nfet_01v8 ad=0.29 pd=2.58 as=0.145 ps=1.29 w=1 l=1
X41 VSS.t196 VSS.t195 a_3868_4185.t54 VSS.t27 sky130_fd_pr__nfet_01v8 ad=0.29 pd=2.58 as=0.145 ps=1.29 w=1 l=1
X42 a_n1962_4406.t77 VSS.t193 VSS.t194 VSS.t38 sky130_fd_pr__nfet_01v8 ad=0.145 pd=1.29 as=0.29 ps=2.58 w=1 l=1
X43 a_3329_8823.t42 VN.t4 a_n935_8875.t11 VSS.t4 sky130_fd_pr__nfet_01v8 ad=0.145 pd=1.29 as=0.145 ps=1.29 w=1 l=1
X44 a_n1962_4406.t118 EN.t6 VSS.t305 VSS.t15 sky130_fd_pr__nfet_01v8 ad=0.145 pd=1.29 as=0.145 ps=1.29 w=1 l=1
X45 a_n1962_4406.t117 EN.t7 VSS.t304 VSS.t212 sky130_fd_pr__nfet_01v8 ad=0.145 pd=1.29 as=0.145 ps=1.29 w=1 l=1
X46 VSS.t192 VSS.t191 VSS.t192 VSS.t22 sky130_fd_pr__nfet_01v8 ad=0.145 pd=1.29 as=0 ps=0 w=1 l=1
X47 a_n735_8972.t21 VP.t2 a_3329_8823.t73 VSS.t313 sky130_fd_pr__nfet_01v8 ad=0.145 pd=1.29 as=0.145 ps=1.29 w=1 l=1
X48 a_n1962_4406.t51 IBIAS.t22 VOUT.t9 VSS.t20 sky130_fd_pr__nfet_01v8 ad=0.145 pd=1.29 as=0.145 ps=1.29 w=1 l=1
X49 a_n1962_4406.t116 EN.t8 VSS.t303 VSS.t212 sky130_fd_pr__nfet_01v8 ad=0.145 pd=1.29 as=0.145 ps=1.29 w=1 l=1
X50 a_3329_8823.t35 IBIAS.t23 a_3868_4185.t35 VSS.t14 sky130_fd_pr__nfet_01v8 ad=0.145 pd=1.29 as=0.145 ps=1.29 w=1 l=1
X51 IBIAS.t7 IBIAS.t6 a_8862_4192.t0 VSS.t214 sky130_fd_pr__nfet_01v8 ad=0.145 pd=1.29 as=0.145 ps=1.29 w=1 l=1
X52 VSS.t302 EN.t9 a_8862_4192.t26 VSS.t214 sky130_fd_pr__nfet_01v8 ad=0.145 pd=1.29 as=0.145 ps=1.29 w=1 l=1
X53 a_n935_8875.t33 a_n935_8875.t32 VDD.t110 VDD.t8 sky130_fd_pr__pfet_01v8 ad=0.145 pd=1.29 as=0.145 ps=1.29 w=1 l=1
X54 a_n1962_4406.t50 IBIAS.t24 VOUT.t3 VSS.t20 sky130_fd_pr__nfet_01v8 ad=0.145 pd=1.29 as=0.145 ps=1.29 w=1 l=1
X55 VSS.t190 VSS.t188 VSS.t189 VSS.t38 sky130_fd_pr__nfet_01v8 ad=0.29 pd=2.58 as=0 ps=0 w=1 l=1
X56 VOUT.t0 IBIAS.t25 a_n1962_4406.t49 VSS.t9 sky130_fd_pr__nfet_01v8 ad=0.145 pd=1.29 as=0.145 ps=1.29 w=1 l=1
X57 VOUT.t6 IBIAS.t26 a_n1962_4406.t48 VSS.t9 sky130_fd_pr__nfet_01v8 ad=0.145 pd=1.29 as=0.145 ps=1.29 w=1 l=1
X58 a_3868_4185.t53 VSS.t186 VSS.t187 VSS.t51 sky130_fd_pr__nfet_01v8 ad=0.145 pd=1.29 as=0.29 ps=2.58 w=1 l=1
X59 a_8862_4192.t25 EN.t10 VSS.t301 VSS.t219 sky130_fd_pr__nfet_01v8 ad=0.145 pd=1.29 as=0.145 ps=1.29 w=1 l=1
X60 VSS.t185 VSS.t183 VSS.t184 VSS.t30 sky130_fd_pr__nfet_01v8 ad=0.29 pd=2.58 as=0 ps=0 w=1 l=1
X61 VDD.t7 a_n735_8972.t31 VOUT.t62 VDD.t5 sky130_fd_pr__pfet_01v8 ad=0.145 pd=1.29 as=0.145 ps=1.29 w=1 l=1
X62 a_n735_8972.t7 a_9909_7861.t0 VSS.t218 sky130_fd_pr__res_xhigh_po_1p41 l=11
X63 a_3868_4185.t34 IBIAS.t27 a_3329_8823.t4 VSS.t10 sky130_fd_pr__nfet_01v8 ad=0.145 pd=1.29 as=0.145 ps=1.29 w=1 l=1
X64 a_8862_4192.t3 IBIAS.t4 IBIAS.t5 VSS.t219 sky130_fd_pr__nfet_01v8 ad=0.145 pd=1.29 as=0.145 ps=1.29 w=1 l=1
X65 VSS.t300 EN.t11 a_n1962_4406.t115 VSS.t17 sky130_fd_pr__nfet_01v8 ad=0.145 pd=1.29 as=0.145 ps=1.29 w=1 l=1
X66 a_n1962_4406.t114 EN.t12 VSS.t299 VSS.t45 sky130_fd_pr__nfet_01v8 ad=0.145 pd=1.29 as=0.145 ps=1.29 w=1 l=1
X67 VSS.t182 VSS.t181 VSS.t182 VSS.t45 sky130_fd_pr__nfet_01v8 ad=0.145 pd=1.29 as=0 ps=0 w=1 l=1
X68 a_n735_8972.t24 a_n935_8875.t34 VDD.t103 VDD.t30 sky130_fd_pr__pfet_01v8 ad=0.145 pd=1.29 as=0.145 ps=1.29 w=1 l=1
X69 VSS.t180 VSS.t179 a_3329_8823.t54 VSS.t64 sky130_fd_pr__nfet_01v8 ad=0.29 pd=2.58 as=0.145 ps=1.29 w=1 l=1
X70 a_3329_8823.t2 IBIAS.t28 a_3868_4185.t33 VSS.t13 sky130_fd_pr__nfet_01v8 ad=0.145 pd=1.29 as=0.145 ps=1.29 w=1 l=1
X71 VSS.t178 VSS.t177 VSS.t178 VSS.t22 sky130_fd_pr__nfet_01v8 ad=0.145 pd=1.29 as=0 ps=0 w=1 l=1
X72 VSS.t293 EN.t13 a_3868_4185.t79 VSS.t18 sky130_fd_pr__nfet_01v8 ad=0.145 pd=1.29 as=0.145 ps=1.29 w=1 l=1
X73 a_n935_8875.t10 VN.t5 a_3329_8823.t64 VSS.t2 sky130_fd_pr__nfet_01v8 ad=0.145 pd=1.29 as=0.145 ps=1.29 w=1 l=1
X74 VSS.t298 EN.t14 a_n1962_4406.t113 VSS.t16 sky130_fd_pr__nfet_01v8 ad=0.145 pd=1.29 as=0.145 ps=1.29 w=1 l=1
X75 VSS.t176 VSS.t175 a_n1962_4406.t76 VSS.t16 sky130_fd_pr__nfet_01v8 ad=0.145 pd=1.29 as=0.145 ps=1.29 w=1 l=1
X76 a_3329_8823.t71 VN.t6 a_n935_8875.t9 VSS.t89 sky130_fd_pr__nfet_01v8 ad=0.145 pd=1.29 as=0.145 ps=1.29 w=1 l=1
X77 VDD.t83 VDD.t82 VDD.t83 VDD.t71 sky130_fd_pr__pfet_01v8 ad=0.145 pd=1.29 as=0 ps=0 w=1 l=1
X78 a_3868_4185.t78 EN.t15 VSS.t297 VSS.t7 sky130_fd_pr__nfet_01v8 ad=0.145 pd=1.29 as=0.145 ps=1.29 w=1 l=1
X79 a_3868_4185.t77 EN.t16 VSS.t296 VSS.t7 sky130_fd_pr__nfet_01v8 ad=0.145 pd=1.29 as=0.145 ps=1.29 w=1 l=1
X80 VDD.t33 a_n735_8972.t32 VOUT.t75 VDD.t15 sky130_fd_pr__pfet_01v8 ad=0.145 pd=1.29 as=0.145 ps=1.29 w=1 l=1
X81 VSS.t295 EN.t17 a_8862_4192.t24 VSS.t214 sky130_fd_pr__nfet_01v8 ad=0.145 pd=1.29 as=0.145 ps=1.29 w=1 l=1
X82 a_3329_8823.t28 IBIAS.t29 a_3868_4185.t32 VSS.t14 sky130_fd_pr__nfet_01v8 ad=0.145 pd=1.29 as=0.145 ps=1.29 w=1 l=1
X83 a_3329_8823.t77 VP.t3 a_n735_8972.t20 VSS.t4 sky130_fd_pr__nfet_01v8 ad=0.145 pd=1.29 as=0.145 ps=1.29 w=1 l=1
X84 VDD.t105 a_n735_8972.t33 VOUT.t86 VDD.t15 sky130_fd_pr__pfet_01v8 ad=0.145 pd=1.29 as=0.145 ps=1.29 w=1 l=1
X85 a_3868_4185.t31 IBIAS.t30 a_3329_8823.t11 VSS.t0 sky130_fd_pr__nfet_01v8 ad=0.145 pd=1.29 as=0.145 ps=1.29 w=1 l=1
X86 a_n1962_4406.t112 EN.t18 VSS.t294 VSS.t6 sky130_fd_pr__nfet_01v8 ad=0.145 pd=1.29 as=0.145 ps=1.29 w=1 l=1
X87 a_8862_4192.t23 EN.t19 VSS.t292 VSS.t219 sky130_fd_pr__nfet_01v8 ad=0.145 pd=1.29 as=0.145 ps=1.29 w=1 l=1
X88 VSS.t174 VSS.t172 VSS.t173 VSS.t30 sky130_fd_pr__nfet_01v8 ad=0.29 pd=2.58 as=0 ps=0 w=1 l=1
X89 a_3329_8823.t12 IBIAS.t31 a_3868_4185.t30 VSS.t1 sky130_fd_pr__nfet_01v8 ad=0.145 pd=1.29 as=0.145 ps=1.29 w=1 l=1
X90 a_3868_4185.t52 VSS.t170 VSS.t171 VSS.t51 sky130_fd_pr__nfet_01v8 ad=0.145 pd=1.29 as=0.29 ps=2.58 w=1 l=1
X91 VOUT.t49 IBIAS.t32 a_n1962_4406.t47 VSS.t17 sky130_fd_pr__nfet_01v8 ad=0.145 pd=1.29 as=0.145 ps=1.29 w=1 l=1
X92 VOUT.t28 IBIAS.t33 a_n1962_4406.t46 VSS.t17 sky130_fd_pr__nfet_01v8 ad=0.145 pd=1.29 as=0.145 ps=1.29 w=1 l=1
X93 a_n1962_4406.t45 IBIAS.t34 VOUT.t57 VSS.t6 sky130_fd_pr__nfet_01v8 ad=0.145 pd=1.29 as=0.145 ps=1.29 w=1 l=1
X94 a_3868_4185.t76 EN.t20 VSS.t291 VSS.t10 sky130_fd_pr__nfet_01v8 ad=0.145 pd=1.29 as=0.145 ps=1.29 w=1 l=1
X95 a_3329_8823.t61 VP.t4 a_n735_8972.t19 VSS.t4 sky130_fd_pr__nfet_01v8 ad=0.145 pd=1.29 as=0.145 ps=1.29 w=1 l=1
X96 VOUT.t69 a_n735_8972.t34 VDD.t23 VDD.t13 sky130_fd_pr__pfet_01v8 ad=0.145 pd=1.29 as=0.145 ps=1.29 w=1 l=1
X97 VSS.t130 VSS.t129 VSS.t130 VSS.t77 sky130_fd_pr__nfet_01v8 ad=0.145 pd=1.29 as=0 ps=0 w=1 l=1
X98 a_3868_4185.t75 EN.t21 VSS.t290 VSS.t11 sky130_fd_pr__nfet_01v8 ad=0.145 pd=1.29 as=0.145 ps=1.29 w=1 l=1
X99 VSS.t289 EN.t22 a_3868_4185.t74 VSS.t13 sky130_fd_pr__nfet_01v8 ad=0.145 pd=1.29 as=0.145 ps=1.29 w=1 l=1
X100 VOUT.t54 IBIAS.t35 a_n1962_4406.t44 VSS.t77 sky130_fd_pr__nfet_01v8 ad=0.145 pd=1.29 as=0.145 ps=1.29 w=1 l=1
X101 a_3868_4185.t29 IBIAS.t36 a_3329_8823.t18 VSS.t7 sky130_fd_pr__nfet_01v8 ad=0.145 pd=1.29 as=0.145 ps=1.29 w=1 l=1
X102 VSS.t169 VSS.t168 VSS.t169 VSS.t8 sky130_fd_pr__nfet_01v8 ad=0.145 pd=1.29 as=0 ps=0 w=1 l=1
X103 a_n1962_4406.t43 IBIAS.t37 VOUT.t52 VSS.t8 sky130_fd_pr__nfet_01v8 ad=0.145 pd=1.29 as=0.145 ps=1.29 w=1 l=1
X104 VOUT.t25 IBIAS.t38 a_n1962_4406.t42 VSS.t19 sky130_fd_pr__nfet_01v8 ad=0.145 pd=1.29 as=0.145 ps=1.29 w=1 l=1
X105 VSS.t167 VSS.t166 VSS.t167 VSS.t12 sky130_fd_pr__nfet_01v8 ad=0.145 pd=1.29 as=0 ps=0 w=1 l=1
X106 VOUT.t26 IBIAS.t39 a_n1962_4406.t41 VSS.t19 sky130_fd_pr__nfet_01v8 ad=0.145 pd=1.29 as=0.145 ps=1.29 w=1 l=1
X107 VSS.t165 VSS.t164 a_n1962_4406.t75 VSS.t56 sky130_fd_pr__nfet_01v8 ad=0.29 pd=2.58 as=0.145 ps=1.29 w=1 l=1
X108 VSS.t288 EN.t23 a_n1962_4406.t111 VSS.t12 sky130_fd_pr__nfet_01v8 ad=0.145 pd=1.29 as=0.145 ps=1.29 w=1 l=1
X109 a_n935_8875.t8 VN.t7 a_3329_8823.t46 VSS.t3 sky130_fd_pr__nfet_01v8 ad=0.145 pd=1.29 as=0.145 ps=1.29 w=1 l=1
X110 VDD.t81 VDD.t80 VDD.t81 VDD.t71 sky130_fd_pr__pfet_01v8 ad=0.145 pd=1.29 as=0 ps=0 w=1 l=1
X111 VSS.t287 EN.t24 a_n1962_4406.t110 VSS.t77 sky130_fd_pr__nfet_01v8 ad=0.145 pd=1.29 as=0.145 ps=1.29 w=1 l=1
X112 VSS.t286 EN.t25 a_n1962_4406.t109 VSS.t77 sky130_fd_pr__nfet_01v8 ad=0.145 pd=1.29 as=0.145 ps=1.29 w=1 l=1
X113 VDD.t106 a_n935_8875.t35 a_n735_8972.t25 VDD.t11 sky130_fd_pr__pfet_01v8 ad=0.145 pd=1.29 as=0.145 ps=1.29 w=1 l=1
X114 a_n1962_4406.t40 IBIAS.t40 VOUT.t58 VSS.t45 sky130_fd_pr__nfet_01v8 ad=0.145 pd=1.29 as=0.145 ps=1.29 w=1 l=1
X115 VSS.t163 VSS.t161 VSS.t163 VSS.t162 sky130_fd_pr__nfet_01v8 ad=0.145 pd=1.29 as=0 ps=0 w=1 l=1
X116 VDD.t25 a_n735_8972.t35 VOUT.t71 VDD.t15 sky130_fd_pr__pfet_01v8 ad=0.145 pd=1.29 as=0.145 ps=1.29 w=1 l=1
X117 VSS.t160 VSS.t158 VSS.t159 VSS.t38 sky130_fd_pr__nfet_01v8 ad=0.29 pd=2.58 as=0 ps=0 w=1 l=1
X118 a_n1962_4406.t108 EN.t26 VSS.t285 VSS.t8 sky130_fd_pr__nfet_01v8 ad=0.145 pd=1.29 as=0.145 ps=1.29 w=1 l=1
X119 a_3329_8823.t27 IBIAS.t41 a_3868_4185.t28 VSS.t18 sky130_fd_pr__nfet_01v8 ad=0.145 pd=1.29 as=0.145 ps=1.29 w=1 l=1
X120 a_n935_8875.t31 a_n935_8875.t30 VDD.t37 VDD.t30 sky130_fd_pr__pfet_01v8 ad=0.145 pd=1.29 as=0.145 ps=1.29 w=1 l=1
X121 a_n1962_4406.t39 IBIAS.t42 VOUT.t13 VSS.t15 sky130_fd_pr__nfet_01v8 ad=0.145 pd=1.29 as=0.145 ps=1.29 w=1 l=1
X122 VOUT.t16 IBIAS.t43 a_n1962_4406.t38 VSS.t16 sky130_fd_pr__nfet_01v8 ad=0.145 pd=1.29 as=0.145 ps=1.29 w=1 l=1
X123 a_n1962_4406.t37 IBIAS.t44 VOUT.t22 VSS.t212 sky130_fd_pr__nfet_01v8 ad=0.145 pd=1.29 as=0.145 ps=1.29 w=1 l=1
X124 a_n1962_4406.t107 EN.t27 VSS.t284 VSS.t8 sky130_fd_pr__nfet_01v8 ad=0.145 pd=1.29 as=0.145 ps=1.29 w=1 l=1
X125 a_3329_8823.t0 IBIAS.t45 a_3868_4185.t27 VSS.t18 sky130_fd_pr__nfet_01v8 ad=0.145 pd=1.29 as=0.145 ps=1.29 w=1 l=1
X126 a_n735_8972.t18 VP.t5 a_3329_8823.t47 VSS.t2 sky130_fd_pr__nfet_01v8 ad=0.145 pd=1.29 as=0.145 ps=1.29 w=1 l=1
X127 VSS.t157 VSS.t155 a_n735_8972.t4 VSS.t156 sky130_fd_pr__nfet_01v8 ad=0.145 pd=1.29 as=0.145 ps=1.29 w=1 l=1
X128 VOUT.t73 a_n735_8972.t36 VDD.t27 VDD.t13 sky130_fd_pr__pfet_01v8 ad=0.145 pd=1.29 as=0.145 ps=1.29 w=1 l=1
X129 a_n1962_4406.t36 IBIAS.t46 VOUT.t39 VSS.t15 sky130_fd_pr__nfet_01v8 ad=0.145 pd=1.29 as=0.145 ps=1.29 w=1 l=1
X130 a_n1962_4406.t106 EN.t28 VSS.t280 VSS.t20 sky130_fd_pr__nfet_01v8 ad=0.145 pd=1.29 as=0.145 ps=1.29 w=1 l=1
X131 VSS.t281 EN.t29 a_n1962_4406.t105 VSS.t19 sky130_fd_pr__nfet_01v8 ad=0.145 pd=1.29 as=0.145 ps=1.29 w=1 l=1
X132 VSS.t283 EN.t30 a_n1962_4406.t104 VSS.t19 sky130_fd_pr__nfet_01v8 ad=0.145 pd=1.29 as=0.145 ps=1.29 w=1 l=1
X133 VSS.t282 EN.t31 a_8862_4192.t22 VSS.t214 sky130_fd_pr__nfet_01v8 ad=0.145 pd=1.29 as=0.145 ps=1.29 w=1 l=1
X134 a_3329_8823.t53 VSS.t153 VSS.t154 VSS.t61 sky130_fd_pr__nfet_01v8 ad=0.145 pd=1.29 as=0.29 ps=2.58 w=1 l=1
X135 VOUT.t14 IBIAS.t47 a_n1962_4406.t35 VSS.t12 sky130_fd_pr__nfet_01v8 ad=0.145 pd=1.29 as=0.145 ps=1.29 w=1 l=1
X136 VSS.t152 VSS.t151 a_n1962_4406.t74 VSS.t56 sky130_fd_pr__nfet_01v8 ad=0.29 pd=2.58 as=0.145 ps=1.29 w=1 l=1
X137 VOUT.t17 IBIAS.t48 a_n1962_4406.t34 VSS.t12 sky130_fd_pr__nfet_01v8 ad=0.145 pd=1.29 as=0.145 ps=1.29 w=1 l=1
X138 VSS.t150 VSS.t149 VSS.t150 VSS.t56 sky130_fd_pr__nfet_01v8 ad=0.145 pd=1.29 as=0 ps=0 w=1 l=1
X139 VSS.t279 EN.t32 a_n1962_4406.t103 VSS.t9 sky130_fd_pr__nfet_01v8 ad=0.145 pd=1.29 as=0.145 ps=1.29 w=1 l=1
X140 a_n1962_4406.t33 IBIAS.t49 VOUT.t50 VSS.t212 sky130_fd_pr__nfet_01v8 ad=0.145 pd=1.29 as=0.145 ps=1.29 w=1 l=1
X141 a_3868_4185.t73 EN.t33 VSS.t278 VSS.t0 sky130_fd_pr__nfet_01v8 ad=0.145 pd=1.29 as=0.145 ps=1.29 w=1 l=1
X142 VSS.t274 EN.t34 a_3868_4185.t72 VSS.t14 sky130_fd_pr__nfet_01v8 ad=0.145 pd=1.29 as=0.145 ps=1.29 w=1 l=1
X143 VSS.t277 EN.t35 a_3868_4185.t71 VSS.t14 sky130_fd_pr__nfet_01v8 ad=0.145 pd=1.29 as=0.145 ps=1.29 w=1 l=1
X144 a_n935_8875.t29 a_n935_8875.t28 VDD.t29 VDD.t8 sky130_fd_pr__pfet_01v8 ad=0.145 pd=1.29 as=0.145 ps=1.29 w=1 l=1
X145 VDD.t79 VDD.t78 VDD.t79 VDD.t71 sky130_fd_pr__pfet_01v8 ad=0.145 pd=1.29 as=0 ps=0 w=1 l=1
X146 a_n1962_4406.t32 IBIAS.t50 VOUT.t29 VSS.t20 sky130_fd_pr__nfet_01v8 ad=0.145 pd=1.29 as=0.145 ps=1.29 w=1 l=1
X147 a_8862_4192.t21 EN.t36 VSS.t276 VSS.t219 sky130_fd_pr__nfet_01v8 ad=0.145 pd=1.29 as=0.145 ps=1.29 w=1 l=1
X148 a_3868_4185.t70 EN.t37 VSS.t275 VSS.t0 sky130_fd_pr__nfet_01v8 ad=0.145 pd=1.29 as=0.145 ps=1.29 w=1 l=1
X149 VSS.t148 VSS.t147 a_3868_4185.t51 VSS.t27 sky130_fd_pr__nfet_01v8 ad=0.29 pd=2.58 as=0.145 ps=1.29 w=1 l=1
X150 VDD.t22 a_n935_8875.t26 a_n935_8875.t27 VDD.t0 sky130_fd_pr__pfet_01v8 ad=0.145 pd=1.29 as=0.145 ps=1.29 w=1 l=1
X151 VOUT.t23 IBIAS.t51 a_n1962_4406.t31 VSS.t9 sky130_fd_pr__nfet_01v8 ad=0.145 pd=1.29 as=0.145 ps=1.29 w=1 l=1
X152 VSS.t273 EN.t38 a_3868_4185.t69 VSS.t1 sky130_fd_pr__nfet_01v8 ad=0.145 pd=1.29 as=0.145 ps=1.29 w=1 l=1
X153 a_3868_4185.t50 VSS.t145 VSS.t146 VSS.t51 sky130_fd_pr__nfet_01v8 ad=0.145 pd=1.29 as=0.29 ps=2.58 w=1 l=1
X154 VSS.t144 VSS.t142 VSS.t143 VSS.t30 sky130_fd_pr__nfet_01v8 ad=0.29 pd=2.58 as=0 ps=0 w=1 l=1
X155 a_3868_4185.t49 VSS.t140 VSS.t141 VSS.t51 sky130_fd_pr__nfet_01v8 ad=0.145 pd=1.29 as=0.29 ps=2.58 w=1 l=1
X156 VSS.t272 EN.t39 a_3868_4185.t68 VSS.t1 sky130_fd_pr__nfet_01v8 ad=0.145 pd=1.29 as=0.145 ps=1.29 w=1 l=1
X157 VSS.t271 EN.t40 a_n1962_4406.t102 VSS.t17 sky130_fd_pr__nfet_01v8 ad=0.145 pd=1.29 as=0.145 ps=1.29 w=1 l=1
X158 a_3868_4185.t26 IBIAS.t52 a_3329_8823.t14 VSS.t10 sky130_fd_pr__nfet_01v8 ad=0.145 pd=1.29 as=0.145 ps=1.29 w=1 l=1
X159 a_3868_4185.t25 IBIAS.t53 a_3329_8823.t24 VSS.t10 sky130_fd_pr__nfet_01v8 ad=0.145 pd=1.29 as=0.145 ps=1.29 w=1 l=1
X160 a_3329_8823.t67 VN.t8 a_n935_8875.t7 VSS.t217 sky130_fd_pr__nfet_01v8 ad=0.145 pd=1.29 as=0.145 ps=1.29 w=1 l=1
X161 a_3868_4185.t24 IBIAS.t54 a_3329_8823.t34 VSS.t11 sky130_fd_pr__nfet_01v8 ad=0.145 pd=1.29 as=0.145 ps=1.29 w=1 l=1
X162 VDD.t77 VDD.t76 VDD.t77 VDD.t71 sky130_fd_pr__pfet_01v8 ad=0.145 pd=1.29 as=0 ps=0 w=1 l=1
X163 a_n1962_4406.t73 VSS.t138 VSS.t139 VSS.t38 sky130_fd_pr__nfet_01v8 ad=0.145 pd=1.29 as=0.29 ps=2.58 w=1 l=1
X164 a_n1962_4406.t72 VSS.t136 VSS.t137 VSS.t38 sky130_fd_pr__nfet_01v8 ad=0.145 pd=1.29 as=0.29 ps=2.58 w=1 l=1
X165 IBIAS.t3 IBIAS.t2 a_8862_4192.t2 VSS.t216 sky130_fd_pr__nfet_01v8 ad=0.145 pd=1.29 as=0.145 ps=1.29 w=1 l=1
X166 VSS.t270 EN.t41 a_8862_4192.t20 VSS.t216 sky130_fd_pr__nfet_01v8 ad=0.145 pd=1.29 as=0.145 ps=1.29 w=1 l=1
X167 a_3868_4185.t23 IBIAS.t55 a_3329_8823.t5 VSS.t11 sky130_fd_pr__nfet_01v8 ad=0.145 pd=1.29 as=0.145 ps=1.29 w=1 l=1
X168 a_3329_8823.t9 IBIAS.t56 a_3868_4185.t22 VSS.t13 sky130_fd_pr__nfet_01v8 ad=0.145 pd=1.29 as=0.145 ps=1.29 w=1 l=1
X169 a_n1962_4406.t101 EN.t42 VSS.t269 VSS.t15 sky130_fd_pr__nfet_01v8 ad=0.145 pd=1.29 as=0.145 ps=1.29 w=1 l=1
X170 a_n1962_4406.t100 EN.t43 VSS.t268 VSS.t15 sky130_fd_pr__nfet_01v8 ad=0.145 pd=1.29 as=0.145 ps=1.29 w=1 l=1
X171 a_3329_8823.t13 IBIAS.t57 a_3868_4185.t21 VSS.t13 sky130_fd_pr__nfet_01v8 ad=0.145 pd=1.29 as=0.145 ps=1.29 w=1 l=1
X172 VDD.t75 VDD.t73 VDD.t74 VDD.t40 sky130_fd_pr__pfet_01v8 ad=0.29 pd=2.58 as=0 ps=0 w=1 l=1
X173 VSS.t267 EN.t44 a_8862_4192.t19 VSS.t214 sky130_fd_pr__nfet_01v8 ad=0.145 pd=1.29 as=0.145 ps=1.29 w=1 l=1
X174 a_8862_4192.t18 EN.t45 VSS.t266 VSS.t215 sky130_fd_pr__nfet_01v8 ad=0.145 pd=1.29 as=0.145 ps=1.29 w=1 l=1
X175 VDD.t101 a_n735_8972.t37 VOUT.t83 VDD.t15 sky130_fd_pr__pfet_01v8 ad=0.145 pd=1.29 as=0.145 ps=1.29 w=1 l=1
X176 a_n1962_4406.t30 IBIAS.t58 VOUT.t55 VSS.t6 sky130_fd_pr__nfet_01v8 ad=0.145 pd=1.29 as=0.145 ps=1.29 w=1 l=1
X177 a_8862_4192.t1 IBIAS.t0 IBIAS.t1 VSS.t215 sky130_fd_pr__nfet_01v8 ad=0.145 pd=1.29 as=0.145 ps=1.29 w=1 l=1
X178 a_3329_8823.t1 IBIAS.t59 a_3868_4185.t20 VSS.t14 sky130_fd_pr__nfet_01v8 ad=0.145 pd=1.29 as=0.145 ps=1.29 w=1 l=1
X179 VDD.t109 a_n935_8875.t36 a_n735_8972.t26 VDD.t11 sky130_fd_pr__pfet_01v8 ad=0.145 pd=1.29 as=0.145 ps=1.29 w=1 l=1
X180 a_8862_4192.t17 EN.t46 VSS.t265 VSS.t219 sky130_fd_pr__nfet_01v8 ad=0.145 pd=1.29 as=0.145 ps=1.29 w=1 l=1
X181 VSS.t135 VSS.t133 VSS.t134 VSS.t30 sky130_fd_pr__nfet_01v8 ad=0.29 pd=2.58 as=0 ps=0 w=1 l=1
X182 VOUT.t81 a_n735_8972.t38 VDD.t99 VDD.t13 sky130_fd_pr__pfet_01v8 ad=0.145 pd=1.29 as=0.145 ps=1.29 w=1 l=1
X183 VSS.t128 VSS.t127 a_3868_4185.t48 VSS.t27 sky130_fd_pr__nfet_01v8 ad=0.29 pd=2.58 as=0.145 ps=1.29 w=1 l=1
X184 a_3868_4185.t47 VSS.t131 VSS.t132 VSS.t51 sky130_fd_pr__nfet_01v8 ad=0.145 pd=1.29 as=0.29 ps=2.58 w=1 l=1
X185 a_n935_8875.t25 a_n935_8875.t24 VDD.t31 VDD.t30 sky130_fd_pr__pfet_01v8 ad=0.145 pd=1.29 as=0.145 ps=1.29 w=1 l=1
X186 a_3868_4185.t19 IBIAS.t60 a_3329_8823.t25 VSS.t10 sky130_fd_pr__nfet_01v8 ad=0.145 pd=1.29 as=0.145 ps=1.29 w=1 l=1
X187 a_3329_8823.t52 VSS.t125 VSS.t126 VSS.t61 sky130_fd_pr__nfet_01v8 ad=0.145 pd=1.29 as=0.29 ps=2.58 w=1 l=1
X188 VSS.t248 EN.t47 a_8862_4192.t16 VSS.t216 sky130_fd_pr__nfet_01v8 ad=0.145 pd=1.29 as=0.145 ps=1.29 w=1 l=1
X189 a_3329_8823.t6 IBIAS.t61 a_3868_4185.t18 VSS.t13 sky130_fd_pr__nfet_01v8 ad=0.145 pd=1.29 as=0.145 ps=1.29 w=1 l=1
X190 VDD.t72 VDD.t70 VDD.t72 VDD.t71 sky130_fd_pr__pfet_01v8 ad=0.145 pd=1.29 as=0 ps=0 w=1 l=1
X191 a_3868_4185.t67 EN.t48 VSS.t264 VSS.t7 sky130_fd_pr__nfet_01v8 ad=0.145 pd=1.29 as=0.145 ps=1.29 w=1 l=1
X192 VOUT.t63 a_n735_8972.t39 VDD.t14 VDD.t13 sky130_fd_pr__pfet_01v8 ad=0.145 pd=1.29 as=0.145 ps=1.29 w=1 l=1
X193 VOUT.t68 a_n735_8972.t40 VDD.t20 VDD.t2 sky130_fd_pr__pfet_01v8 ad=0.145 pd=1.29 as=0.145 ps=1.29 w=1 l=1
X194 a_n1962_4406.t99 EN.t49 VSS.t263 VSS.t6 sky130_fd_pr__nfet_01v8 ad=0.145 pd=1.29 as=0.145 ps=1.29 w=1 l=1
X195 a_8862_4192.t15 EN.t50 VSS.t262 VSS.t215 sky130_fd_pr__nfet_01v8 ad=0.145 pd=1.29 as=0.145 ps=1.29 w=1 l=1
X196 VSS.t124 VSS.t123 a_3329_8823.t51 VSS.t64 sky130_fd_pr__nfet_01v8 ad=0.29 pd=2.58 as=0.145 ps=1.29 w=1 l=1
X197 a_n1962_4406.t98 EN.t51 VSS.t261 VSS.t6 sky130_fd_pr__nfet_01v8 ad=0.145 pd=1.29 as=0.145 ps=1.29 w=1 l=1
X198 VDD.t69 VDD.t67 VDD.t68 VDD.t40 sky130_fd_pr__pfet_01v8 ad=0.29 pd=2.58 as=0 ps=0 w=1 l=1
X199 a_3329_8823.t58 VP.t6 a_n735_8972.t17 VSS.t89 sky130_fd_pr__nfet_01v8 ad=0.145 pd=1.29 as=0.145 ps=1.29 w=1 l=1
X200 VSS.t122 VSS.t121 a_n1962_4406.t71 VSS.t56 sky130_fd_pr__nfet_01v8 ad=0.29 pd=2.58 as=0.145 ps=1.29 w=1 l=1
X201 a_3329_8823.t79 VN.t9 a_n935_8875.t6 VSS.t89 sky130_fd_pr__nfet_01v8 ad=0.145 pd=1.29 as=0.145 ps=1.29 w=1 l=1
X202 VOUT.t40 IBIAS.t62 a_n1962_4406.t29 VSS.t77 sky130_fd_pr__nfet_01v8 ad=0.145 pd=1.29 as=0.145 ps=1.29 w=1 l=1
X203 a_n935_8875.t5 VN.t10 a_3329_8823.t70 VSS.t2 sky130_fd_pr__nfet_01v8 ad=0.145 pd=1.29 as=0.145 ps=1.29 w=1 l=1
X204 VDD.t66 VDD.t64 VDD.t65 VDD.t40 sky130_fd_pr__pfet_01v8 ad=0.29 pd=2.58 as=0 ps=0 w=1 l=1
X205 a_n735_8972.t5 a_n935_8875.t37 VDD.t28 VDD.t8 sky130_fd_pr__pfet_01v8 ad=0.145 pd=1.29 as=0.145 ps=1.29 w=1 l=1
X206 VOUT.t66 a_n735_8972.t41 VDD.t18 VDD.t2 sky130_fd_pr__pfet_01v8 ad=0.145 pd=1.29 as=0.145 ps=1.29 w=1 l=1
X207 VSS.t120 VSS.t119 VSS.t120 VSS.t45 sky130_fd_pr__nfet_01v8 ad=0.145 pd=1.29 as=0 ps=0 w=1 l=1
X208 a_n1962_4406.t97 EN.t52 VSS.t260 VSS.t45 sky130_fd_pr__nfet_01v8 ad=0.145 pd=1.29 as=0.145 ps=1.29 w=1 l=1
X209 a_n1962_4406.t28 IBIAS.t63 VOUT.t15 VSS.t8 sky130_fd_pr__nfet_01v8 ad=0.145 pd=1.29 as=0.145 ps=1.29 w=1 l=1
X210 VSS.t118 VSS.t117 VSS.t118 VSS.t77 sky130_fd_pr__nfet_01v8 ad=0.145 pd=1.29 as=0 ps=0 w=1 l=1
X211 VDD.t4 a_n935_8875.t38 a_n735_8972.t0 VDD.t0 sky130_fd_pr__pfet_01v8 ad=0.145 pd=1.29 as=0.145 ps=1.29 w=1 l=1
X212 a_n735_8972.t16 VP.t7 a_3329_8823.t74 VSS.t3 sky130_fd_pr__nfet_01v8 ad=0.145 pd=1.29 as=0.145 ps=1.29 w=1 l=1
X213 a_3329_8823.t75 VP.t8 a_n735_8972.t15 VSS.t5 sky130_fd_pr__nfet_01v8 ad=0.145 pd=1.29 as=0.145 ps=1.29 w=1 l=1
X214 a_n1962_4406.t96 EN.t53 VSS.t259 VSS.t212 sky130_fd_pr__nfet_01v8 ad=0.145 pd=1.29 as=0.145 ps=1.29 w=1 l=1
X215 VDD.t63 VDD.t61 VDD.t62 VDD.t40 sky130_fd_pr__pfet_01v8 ad=0.29 pd=2.58 as=0 ps=0 w=1 l=1
X216 VSS.t116 VSS.t115 a_n1962_4406.t70 VSS.t16 sky130_fd_pr__nfet_01v8 ad=0.145 pd=1.29 as=0.145 ps=1.29 w=1 l=1
X217 a_n1962_4406.t27 IBIAS.t64 VOUT.t18 VSS.t20 sky130_fd_pr__nfet_01v8 ad=0.145 pd=1.29 as=0.145 ps=1.29 w=1 l=1
X218 VSS.t258 EN.t54 a_n1962_4406.t95 VSS.t16 sky130_fd_pr__nfet_01v8 ad=0.145 pd=1.29 as=0.145 ps=1.29 w=1 l=1
X219 VOUT.t10 IBIAS.t65 a_n1962_4406.t26 VSS.t19 sky130_fd_pr__nfet_01v8 ad=0.145 pd=1.29 as=0.145 ps=1.29 w=1 l=1
X220 a_n735_8972.t14 VP.t9 a_3329_8823.t78 VSS.t84 sky130_fd_pr__nfet_01v8 ad=0.145 pd=1.29 as=0.145 ps=1.29 w=1 l=1
X221 a_3329_8823.t59 VP.t10 a_n735_8972.t13 VSS.t4 sky130_fd_pr__nfet_01v8 ad=0.145 pd=1.29 as=0.145 ps=1.29 w=1 l=1
X222 a_n735_8972.t12 VP.t11 a_3329_8823.t69 VSS.t84 sky130_fd_pr__nfet_01v8 ad=0.145 pd=1.29 as=0.145 ps=1.29 w=1 l=1
X223 a_n1962_4406.t69 VSS.t113 VSS.t114 VSS.t38 sky130_fd_pr__nfet_01v8 ad=0.145 pd=1.29 as=0.29 ps=2.58 w=1 l=1
X224 VSS.t257 EN.t55 a_n1962_4406.t94 VSS.t12 sky130_fd_pr__nfet_01v8 ad=0.145 pd=1.29 as=0.145 ps=1.29 w=1 l=1
X225 a_n1962_4406.t68 VSS.t111 VSS.t112 VSS.t8 sky130_fd_pr__nfet_01v8 ad=0.145 pd=1.29 as=0.145 ps=1.29 w=1 l=1
X226 VOUT.t51 IBIAS.t66 a_n1962_4406.t25 VSS.t9 sky130_fd_pr__nfet_01v8 ad=0.145 pd=1.29 as=0.145 ps=1.29 w=1 l=1
X227 VOUT.t30 IBIAS.t67 a_n1962_4406.t24 VSS.t19 sky130_fd_pr__nfet_01v8 ad=0.145 pd=1.29 as=0.145 ps=1.29 w=1 l=1
X228 VOUT.t24 IBIAS.t68 a_n1962_4406.t23 VSS.t12 sky130_fd_pr__nfet_01v8 ad=0.145 pd=1.29 as=0.145 ps=1.29 w=1 l=1
X229 VSS.t256 EN.t56 a_8862_4192.t14 VSS.t214 sky130_fd_pr__nfet_01v8 ad=0.145 pd=1.29 as=0.145 ps=1.29 w=1 l=1
X230 a_8862_4192.t13 EN.t57 VSS.t255 VSS.t219 sky130_fd_pr__nfet_01v8 ad=0.145 pd=1.29 as=0.145 ps=1.29 w=1 l=1
X231 VDD.t21 a_n935_8875.t22 a_n935_8875.t23 VDD.t11 sky130_fd_pr__pfet_01v8 ad=0.145 pd=1.29 as=0.145 ps=1.29 w=1 l=1
X232 a_3329_8823.t50 VSS.t109 VSS.t110 VSS.t61 sky130_fd_pr__nfet_01v8 ad=0.145 pd=1.29 as=0.29 ps=2.58 w=1 l=1
X233 VOUT.t56 IBIAS.t69 a_n1962_4406.t22 VSS.t17 sky130_fd_pr__nfet_01v8 ad=0.145 pd=1.29 as=0.145 ps=1.29 w=1 l=1
X234 a_n1962_4406.t21 IBIAS.t70 VOUT.t20 VSS.t45 sky130_fd_pr__nfet_01v8 ad=0.145 pd=1.29 as=0.145 ps=1.29 w=1 l=1
X235 a_3329_8823.t16 IBIAS.t71 a_3868_4185.t17 VSS.t18 sky130_fd_pr__nfet_01v8 ad=0.145 pd=1.29 as=0.145 ps=1.29 w=1 l=1
X236 VSS.t108 VSS.t107 a_3868_4185.t46 VSS.t27 sky130_fd_pr__nfet_01v8 ad=0.29 pd=2.58 as=0.145 ps=1.29 w=1 l=1
X237 VOUT.t79 a_n735_8972.t42 VDD.t38 VDD.t13 sky130_fd_pr__pfet_01v8 ad=0.145 pd=1.29 as=0.145 ps=1.29 w=1 l=1
X238 VOUT.t34 IBIAS.t72 a_n1962_4406.t20 VSS.t17 sky130_fd_pr__nfet_01v8 ad=0.145 pd=1.29 as=0.145 ps=1.29 w=1 l=1
X239 a_n1962_4406.t19 IBIAS.t73 VOUT.t11 VSS.t45 sky130_fd_pr__nfet_01v8 ad=0.145 pd=1.29 as=0.145 ps=1.29 w=1 l=1
X240 VSS.t106 VSS.t105 a_3868_4185.t45 VSS.t27 sky130_fd_pr__nfet_01v8 ad=0.29 pd=2.58 as=0.145 ps=1.29 w=1 l=1
X241 VSS.t104 VSS.t101 VSS.t103 VSS.t102 sky130_fd_pr__nfet_01v8 ad=0.29 pd=2.58 as=0 ps=0 w=1 l=1
X242 a_n1962_4406.t18 IBIAS.t74 VOUT.t31 VSS.t15 sky130_fd_pr__nfet_01v8 ad=0.145 pd=1.29 as=0.145 ps=1.29 w=1 l=1
X243 VSS.t100 VSS.t99 VSS.t100 VSS.t22 sky130_fd_pr__nfet_01v8 ad=0.145 pd=1.29 as=0 ps=0 w=1 l=1
X244 VSS.t254 EN.t58 a_8862_4192.t12 VSS.t216 sky130_fd_pr__nfet_01v8 ad=0.145 pd=1.29 as=0.145 ps=1.29 w=1 l=1
X245 VOUT.t8 IBIAS.t75 a_n1962_4406.t17 VSS.t16 sky130_fd_pr__nfet_01v8 ad=0.145 pd=1.29 as=0.145 ps=1.29 w=1 l=1
X246 a_n1962_4406.t16 IBIAS.t76 VOUT.t32 VSS.t212 sky130_fd_pr__nfet_01v8 ad=0.145 pd=1.29 as=0.145 ps=1.29 w=1 l=1
X247 a_n1962_4406.t15 IBIAS.t77 VOUT.t4 VSS.t212 sky130_fd_pr__nfet_01v8 ad=0.145 pd=1.29 as=0.145 ps=1.29 w=1 l=1
X248 a_3868_4185.t16 IBIAS.t78 a_3329_8823.t21 VSS.t0 sky130_fd_pr__nfet_01v8 ad=0.145 pd=1.29 as=0.145 ps=1.29 w=1 l=1
X249 VSS.t98 VSS.t97 IBIAS.t9 VSS.t22 sky130_fd_pr__nfet_01v8 ad=0.29 pd=2.58 as=0.145 ps=1.29 w=1 l=1
X250 a_n1962_4406.t93 EN.t59 VSS.t253 VSS.t20 sky130_fd_pr__nfet_01v8 ad=0.145 pd=1.29 as=0.145 ps=1.29 w=1 l=1
X251 VOUT.t19 IBIAS.t79 a_n1962_4406.t14 VSS.t16 sky130_fd_pr__nfet_01v8 ad=0.145 pd=1.29 as=0.145 ps=1.29 w=1 l=1
X252 a_n1962_4406.t92 EN.t60 VSS.t252 VSS.t20 sky130_fd_pr__nfet_01v8 ad=0.145 pd=1.29 as=0.145 ps=1.29 w=1 l=1
X253 a_3868_4185.t15 IBIAS.t80 a_3329_8823.t36 VSS.t7 sky130_fd_pr__nfet_01v8 ad=0.145 pd=1.29 as=0.145 ps=1.29 w=1 l=1
X254 VSS.t251 EN.t61 a_8862_4192.t11 VSS.t214 sky130_fd_pr__nfet_01v8 ad=0.145 pd=1.29 as=0.145 ps=1.29 w=1 l=1
X255 VDD.t60 VDD.t58 VDD.t59 VDD.t47 sky130_fd_pr__pfet_01v8 ad=0.29 pd=2.58 as=0 ps=0 w=1 l=1
X256 a_n735_8972.t11 VP.t12 a_3329_8823.t40 VSS.t2 sky130_fd_pr__nfet_01v8 ad=0.145 pd=1.29 as=0.145 ps=1.29 w=1 l=1
X257 VSS.t250 EN.t62 a_n1962_4406.t91 VSS.t9 sky130_fd_pr__nfet_01v8 ad=0.145 pd=1.29 as=0.145 ps=1.29 w=1 l=1
X258 VSS.t96 VSS.t95 VSS.t96 VSS.t15 sky130_fd_pr__nfet_01v8 ad=0.145 pd=1.29 as=0 ps=0 w=1 l=1
X259 a_8862_4192.t10 EN.t63 VSS.t249 VSS.t215 sky130_fd_pr__nfet_01v8 ad=0.145 pd=1.29 as=0.145 ps=1.29 w=1 l=1
X260 a_3868_4185.t14 IBIAS.t81 a_3329_8823.t32 VSS.t7 sky130_fd_pr__nfet_01v8 ad=0.145 pd=1.29 as=0.145 ps=1.29 w=1 l=1
X261 VSS.t247 EN.t64 a_n1962_4406.t90 VSS.t9 sky130_fd_pr__nfet_01v8 ad=0.145 pd=1.29 as=0.145 ps=1.29 w=1 l=1
X262 a_3329_8823.t23 IBIAS.t82 a_3868_4185.t13 VSS.t1 sky130_fd_pr__nfet_01v8 ad=0.145 pd=1.29 as=0.145 ps=1.29 w=1 l=1
X263 a_8862_4192.t9 EN.t65 VSS.t246 VSS.t219 sky130_fd_pr__nfet_01v8 ad=0.145 pd=1.29 as=0.145 ps=1.29 w=1 l=1
X264 VSS.t245 EN.t66 a_3868_4185.t66 VSS.t14 sky130_fd_pr__nfet_01v8 ad=0.145 pd=1.29 as=0.145 ps=1.29 w=1 l=1
X265 a_n735_8972.t1 a_n935_8875.t39 VDD.t9 VDD.t8 sky130_fd_pr__pfet_01v8 ad=0.145 pd=1.29 as=0.145 ps=1.29 w=1 l=1
X266 VDD.t35 a_n735_8972.t43 VOUT.t76 VDD.t5 sky130_fd_pr__pfet_01v8 ad=0.145 pd=1.29 as=0.145 ps=1.29 w=1 l=1
X267 a_n1962_4406.t13 IBIAS.t83 VOUT.t43 VSS.t6 sky130_fd_pr__nfet_01v8 ad=0.145 pd=1.29 as=0.145 ps=1.29 w=1 l=1